# generated using pymatgen
data_VH3C15N4O13
_symmetry_space_group_name_H-M   'P 1'
_cell_length_a   21.87390000
_cell_length_b   6.81800000
_cell_length_c   19.67219900
_cell_angle_alpha   90.00000000
_cell_angle_beta   100.39908600
_cell_angle_gamma   90.00000000
_symmetry_Int_Tables_number   1
_chemical_formula_structural   VH3C15N4O13
_chemical_formula_sum   'V4 H12 C60 N16 O52'
_cell_volume   2885.64779717
_cell_formula_units_Z   4
loop_
 _symmetry_equiv_pos_site_id
 _symmetry_equiv_pos_as_xyz
  1  'x, y, z'
loop_
 _atom_site_type_symbol
 _atom_site_label
 _atom_site_symmetry_multiplicity
 _atom_site_fract_x
 _atom_site_fract_y
 _atom_site_fract_z
 _atom_site_occupancy
  V  V1  1  0.48972300  0.05641800  0.49754100  1
  V  V2  1  0.51027700  0.55641800  0.50245900  1
  V  V3  1  0.01054100  0.72069300  0.00220500  1
  V  V4  1  0.98945900  0.22069400  0.99779500  1
  H  H1  1  0.89197200  0.94855700  0.65232500  1
  H  H2  1  0.10802800  0.44855700  0.34767500  1
  H  H3  1  0.80626100  0.89833400  0.86502300  1
  H  H4  1  0.19373900  0.39833400  0.13497700  1
  H  H5  1  0.54189700  0.80581500  0.73127800  1
  H  H6  1  0.45810300  0.30581500  0.26872200  1
  H  H7  1  0.71881200  0.85272300  0.85691500  1
  H  H8  1  0.28118800  0.35272300  0.14308500  1
  H  H9  1  0.60871400  0.80924200  0.84540800  1
  H  H10  1  0.39128600  0.30924200  0.15459200  1
  H  H11  1  0.70249800  0.21620800  0.25500400  1
  H  H12  1  0.29750200  0.71620800  0.74499600  1
  C  C1  1  0.42426900  0.33873600  0.57999600  1
  C  C2  1  0.57573000  0.83873600  0.42000400  1
  C  C3  1  0.42571500  0.34013500  0.38943800  1
  C  C4  1  0.57428500  0.84013600  0.61056200  1
  C  C5  1  0.87156700  0.94104100  0.69815900  1
  C  C6  1  0.12843300  0.44104100  0.30184100  1
  C  C7  1  0.88622800  0.92410500  0.82083500  1
  C  C8  1  0.11377200  0.42410500  0.17916500  1
  C  C9  1  0.59133300  0.82921300  0.73567300  1
  C  C10  1  0.40866700  0.32921300  0.26432700  1
  C  C11  1  0.62878500  0.83043100  0.79959600  1
  C  C12  1  0.37121500  0.33043100  0.20040400  1
  C  C13  1  0.69188600  0.85580400  0.80557600  1
  C  C14  1  0.30811400  0.35580400  0.19442400  1
  C  C15  1  0.71852700  0.88296500  0.74730300  1
  C  C16  1  0.28147300  0.38296500  0.25269700  1
  C  C17  1  0.68027300  0.88340700  0.68239200  1
  C  C18  1  0.31972700  0.38340700  0.31760800  1
  C  C19  1  0.78274600  0.90755500  0.75303400  1
  C  C20  1  0.21725300  0.40755500  0.24696600  1
  C  C21  1  0.80778000  0.93188700  0.69374600  1
  C  C22  1  0.19222000  0.43188700  0.30625400  1
  C  C23  1  0.76925900  0.94381800  0.62991300  1
  C  C24  1  0.23074100  0.44381800  0.37008700  1
  C  C25  1  0.70601200  0.91836100  0.62401800  1
  C  C26  1  0.29398800  0.41836100  0.37598300  1
  C  C27  1  0.82272700  0.90812900  0.81691100  1
  C  C28  1  0.17727300  0.40812900  0.18308900  1
  C  C29  1  0.91053900  0.93705800  0.76133400  1
  C  C30  1  0.08946000  0.43705800  0.23866600  1
  C  C31  1  0.61645300  0.85554200  0.67706300  1
  C  C32  1  0.38354600  0.35554200  0.32293700  1
  C  C33  1  0.77454600  0.83161700  0.30945200  1
  C  C34  1  0.22545300  0.33161700  0.69054800  1
  C  C35  1  0.79159500  0.01254500  0.27315200  1
  C  C36  1  0.20840400  0.51254500  0.72684800  1
  C  C37  1  0.87650600  0.92146400  0.12313500  1
  C  C38  1  0.12349400  0.42146400  0.87686500  1
  C  C39  1  0.62119200  0.85481700  0.37422100  1
  C  C40  1  0.37880800  0.35481700  0.62577900  1
  C  C41  1  0.77309800  0.71625000  0.24382700  1
  C  C42  1  0.22690200  0.21625000  0.75617300  1
  C  C43  1  0.79100500  0.89733700  0.20690700  1
  C  C44  1  0.20899500  0.39733700  0.79309300  1
  C  C45  1  0.70505800  0.76569300  0.22353300  1
  C  C46  1  0.29494200  0.26569300  0.77646700  1
  C  C47  1  0.70596900  0.88138000  0.28965700  1
  C  C48  1  0.29403100  0.38138000  0.71034300  1
  C  C49  1  0.72231800  0.94693200  0.18750400  1
  C  C50  1  0.27768200  0.44693200  0.81249600  1
  C  C51  1  0.72299100  0.06805000  0.25301000  1
  C  C52  1  0.27700900  0.56805000  0.74699000  1
  C  C53  1  0.83801300  0.90980200  0.16081600  1
  C  C54  1  0.16198700  0.40980200  0.83918400  1
  C  C55  1  0.65931700  0.86686200  0.33611300  1
  C  C56  1  0.34068200  0.36686200  0.66388700  1
  C  C57  1  0.07213400  0.43833100  0.11213500  1
  C  C58  1  0.92786600  0.93833100  0.88786500  1
  C  C59  1  0.07749100  0.43883900  0.92195500  1
  C  C60  1  0.92250800  0.93883900  0.07804500  1
  N  N1  1  0.97593900  0.95065700  0.76511000  1
  N  N2  1  0.02406100  0.45065700  0.23489000  1
  N  N3  1  0.80558300  0.76900400  0.37740900  1
  N  N4  1  0.19441700  0.26900400  0.62259100  1
  N  N5  1  0.69158200  0.00656000  0.11907700  1
  N  N6  1  0.30841800  0.50656000  0.88092300  1
  N  N7  1  0.65698900  0.62857100  0.19360300  1
  N  N8  1  0.34301100  0.12857100  0.80639700  1
  N  N9  1  0.79931500  0.52197300  0.24073700  1
  N  N10  1  0.20068500  0.02197300  0.75926300  1
  N  N11  1  0.79434400  0.98027500  0.56905100  1
  N  N12  1  0.20565500  0.48027400  0.43094900  1
  N  N13  1  0.66781300  0.94451800  0.55787200  1
  N  N14  1  0.33218700  0.44451800  0.44212800  1
  N  N15  1  0.84063000  0.14623100  0.30326700  1
  N  N16  1  0.15937000  0.64623100  0.69673300  1
  O  O1  1  0.45073100  0.50821800  0.41619600  1
  O  O2  1  0.54926900  0.00821800  0.58380400  1
  O  O3  1  0.43123800  0.15967300  0.55447200  1
  O  O4  1  0.56876200  0.65967300  0.44552800  1
  O  O5  1  0.43218900  0.15979200  0.41624100  1
  O  O6  1  0.56781100  0.65979200  0.58375900  1
  O  O7  1  0.55020500  0.00719000  0.43632300  1
  O  O8  1  0.44979500  0.50719000  0.56367700  1
  O  O9  1  0.53774200  0.32731900  0.50787000  1
  O  O10  1  0.46225700  0.82731900  0.49213000  1
  O  O11  1  0.05135200  0.27133400  0.93816200  1
  O  O12  1  0.94864800  0.77133400  0.06183800  1
  O  O13  1  0.06688000  0.61733400  0.08441600  1
  O  O14  1  0.93311900  0.11733400  0.91558400  1
  O  O15  1  0.07039400  0.61842600  0.94682400  1
  O  O16  1  0.92960600  0.11842600  0.05317600  1
  O  O17  1  0.95238100  0.76989000  0.91491500  1
  O  O18  1  0.04761900  0.26989000  0.08508500  1
  O  O19  1  0.96219500  0.44986300  0.99162200  1
  O  O20  1  0.03780500  0.94986400  0.00837800  1
  O  O21  1  0.01276900  0.94948500  0.82489200  1
  O  O22  1  0.99890500  0.96401300  0.70877100  1
  O  O23  1  0.98723100  0.44948500  0.17510800  1
  O  O24  1  0.00109500  0.46401200  0.29122900  1
  O  O25  1  0.86492300  0.73309100  0.38872200  1
  O  O26  1  0.77406500  0.74879300  0.42702600  1
  O  O27  1  0.13507700  0.23309100  0.61127800  1
  O  O28  1  0.22593500  0.24879300  0.57297400  1
  O  O29  1  0.63224200  0.04253100  0.10721900  1
  O  O30  1  0.72336900  0.02403700  0.06958600  1
  O  O31  1  0.36775700  0.54253100  0.89278200  1
  O  O32  1  0.27663100  0.52403700  0.93041400  1
  O  O33  1  0.66070900  0.53940000  0.13607900  1
  O  O34  1  0.61013000  0.59498500  0.22426200  1
  O  O35  1  0.33929100  0.03940000  0.86392100  1
  O  O36  1  0.38987000  0.09498500  0.77573800  1
  O  O37  1  0.78175100  0.38027900  0.27698900  1
  O  O38  1  0.84174500  0.49091500  0.20345300  1
  O  O39  1  0.21824900  0.88027900  0.72301100  1
  O  O40  1  0.15825400  0.99091500  0.79654700  1
  O  O41  1  0.76342100  0.92595700  0.50929200  1
  O  O42  1  0.84273700  0.09253000  0.57163800  1
  O  O43  1  0.23657900  0.42595700  0.49070800  1
  O  O44  1  0.15726200  0.59253000  0.42836200  1
  O  O45  1  0.68351000  0.07479000  0.51592700  1
  O  O46  1  0.62618000  0.81427200  0.53398200  1
  O  O47  1  0.31649000  0.57479000  0.48407300  1
  O  O48  1  0.37382000  0.31427200  0.46601800  1
  O  O49  1  0.83764200  0.23509900  0.36104300  1
  O  O50  1  0.88755400  0.17733400  0.27247000  1
  O  O51  1  0.16235800  0.73509900  0.63895700  1
  O  O52  1  0.11244600  0.67733400  0.72753000  1
