# generated using pymatgen
data_Zn3H64(C31O6)2
_symmetry_space_group_name_H-M   'P 1'
_cell_length_a   35.52983800
_cell_length_b   35.52984200
_cell_length_c   23.82450500
_cell_angle_alpha   90.00000000
_cell_angle_beta   90.00000000
_cell_angle_gamma   90.00000000
_symmetry_Int_Tables_number   1
_chemical_formula_structural   Zn3H64(C31O6)2
_chemical_formula_sum   'Zn12 H256 C248 O48'
_cell_volume   30075.32918947
_cell_formula_units_Z   4
loop_
 _symmetry_equiv_pos_site_id
 _symmetry_equiv_pos_as_xyz
  1  'x, y, z'
loop_
 _atom_site_type_symbol
 _atom_site_label
 _atom_site_symmetry_multiplicity
 _atom_site_fract_x
 _atom_site_fract_y
 _atom_site_fract_z
 _atom_site_occupancy
  Zn  Zn1  1  0.04271700  0.49993700  0.49994900  1
  Zn  Zn2  1  0.49999000  0.95732300  0.50006100  1
  Zn  Zn3  1  0.95733100  0.50006000  0.50006200  1
  Zn  Zn4  1  0.50002600  0.04271000  0.49994000  1
  Zn  Zn5  1  0.54268100  0.00001400  0.99993500  1
  Zn  Zn6  1  0.00006900  0.45728800  0.00005700  1
  Zn  Zn7  1  0.45729300  0.99997600  0.00005700  1
  Zn  Zn8  1  0.99994600  0.54267500  0.99994400  1
  Zn  Zn9  1  0.00003100  0.00008100  0.56362400  1
  Zn  Zn10  1  0.99995400  0.99989400  0.43659800  1
  Zn  Zn11  1  0.50011200  0.50004900  0.06340300  1
  Zn  Zn12  1  0.49992500  0.49997200  0.93637700  1
  H  H1  1  0.99829900  0.11912400  0.40995600  1
  H  H2  1  0.11919200  0.00411300  0.41035500  1
  H  H3  1  0.00479400  0.88109700  0.41257400  1
  H  H4  1  0.88115900  0.99789700  0.41213600  1
  H  H5  1  0.00137200  0.11890200  0.58788200  1
  H  H6  1  0.88078000  0.00201100  0.59001500  1
  H  H7  1  0.99552900  0.88083500  0.59002000  1
  H  H8  1  0.11884200  0.99592100  0.58791800  1
  H  H9  1  0.49799600  0.61922300  0.90998700  1
  H  H10  1  0.61917100  0.50446800  0.90998200  1
  H  H11  1  0.50408500  0.38116200  0.91208300  1
  H  H12  1  0.38110400  0.49864000  0.91211900  1
  H  H13  1  0.50211200  0.61884500  0.08786500  1
  H  H14  1  0.38088200  0.50170000  0.09004600  1
  H  H15  1  0.49588900  0.38081100  0.08964600  1
  H  H16  1  0.61890800  0.49521300  0.08742800  1
  H  H17  1  0.98602800  0.31086500  0.41334000  1
  H  H18  1  0.31081800  0.01433500  0.41391900  1
  H  H19  1  0.01582600  0.68937000  0.41520400  1
  H  H20  1  0.68934400  0.98493500  0.41457300  1
  H  H21  1  0.01294900  0.31071600  0.58558500  1
  H  H22  1  0.68903500  0.01434600  0.58592200  1
  H  H23  1  0.98526700  0.68900000  0.58610300  1
  H  H24  1  0.31077100  0.98639800  0.58580100  1
  H  H25  1  0.48565900  0.81096700  0.91407800  1
  H  H26  1  0.81100600  0.51472600  0.91389800  1
  H  H27  1  0.51360600  0.18923300  0.91419900  1
  H  H28  1  0.18928900  0.48706800  0.91441500  1
  H  H29  1  0.51507400  0.81066000  0.08542500  1
  H  H30  1  0.18914100  0.51397000  0.08666700  1
  H  H31  1  0.48566200  0.18918500  0.08607800  1
  H  H32  1  0.81063600  0.48418800  0.08480500  1
  H  H33  1  0.99842700  0.16998500  0.35914000  1
  H  H34  1  0.96023400  0.24049500  0.40503500  1
  H  H35  1  0.93706800  0.19569900  0.39539900  1
  H  H36  1  0.95819700  0.21967200  0.33651400  1
  H  H37  1  0.02732000  0.24605700  0.39505100  1
  H  H38  1  0.03723100  0.21761800  0.33476100  1
  H  H39  1  0.05677600  0.20458700  0.40193100  1
  H  H40  1  0.17007200  0.00546900  0.35966100  1
  H  H41  1  0.24087500  0.04185300  0.40763000  1
  H  H42  1  0.19616200  0.06556900  0.40027500  1
  H  H43  1  0.21967100  0.04623600  0.33962800  1
  H  H44  1  0.24591600  0.97505000  0.39411100  1
  H  H45  1  0.21777100  0.96736100  0.33280300  1
  H  H46  1  0.20420900  0.94572400  0.39829200  1
  H  H47  1  0.00650200  0.83038600  0.36151300  1
  H  H48  1  0.04278900  0.75955800  0.40962000  1
  H  H49  1  0.06641900  0.80433700  0.40260900  1
  H  H50  1  0.04744700  0.78083300  0.34170500  1
  H  H51  1  0.97610700  0.75433200  0.39483800  1
  H  H52  1  0.96860000  0.78278600  0.33379600  1
  H  H53  1  0.94661700  0.79592000  0.39922300  1
  H  H54  1  0.83046700  0.99778000  0.36093300  1
  H  H55  1  0.75990400  0.95971300  0.40692500  1
  H  H56  1  0.80475200  0.93659000  0.39764800  1
  H  H57  1  0.78081400  0.95740000  0.33847900  1
  H  H58  1  0.75421400  0.02672400  0.39578500  1
  H  H59  1  0.78293900  0.03643200  0.33572300  1
  H  H60  1  0.79558600  0.05630500  0.40284200  1
  H  H61  1  0.00110400  0.16963000  0.63898900  1
  H  H62  1  0.03903300  0.24039600  0.59349300  1
  H  H63  1  0.06236300  0.19565700  0.60284000  1
  H  H64  1  0.04116600  0.21939200  0.66188500  1
  H  H65  1  0.97193300  0.24569100  0.60352500  1
  H  H66  1  0.96213600  0.21706300  0.66365700  1
  H  H67  1  0.94262400  0.20413400  0.59642200  1
  H  H68  1  0.82987300  0.00207200  0.64074000  1
  H  H69  1  0.75941200  0.03993800  0.59403600  1
  H  H70  1  0.80415700  0.06317900  0.60375900  1
  H  H71  1  0.78000400  0.04231500  0.66269200  1
  H  H72  1  0.75384200  0.97291700  0.60523700  1
  H  H73  1  0.78236700  0.96328500  0.66553700  1
  H  H74  1  0.79531500  0.94344100  0.59852700  1
  H  H75  1  0.99397700  0.82997000  0.64076200  1
  H  H76  1  0.95800200  0.75911900  0.59222100  1
  H  H77  1  0.93417900  0.80378300  0.59944000  1
  H  H78  1  0.95322100  0.78021500  0.66024300  1
  H  H79  1  0.02470000  0.75413900  0.60694700  1
  H  H80  1  0.03205900  0.78242900  0.66819700  1
  H  H81  1  0.05401400  0.79586400  0.60288600  1
  H  H82  1  0.16952700  0.99458700  0.63905900  1
  H  H83  1  0.24070600  0.95855600  0.59176200  1
  H  H84  1  0.19605500  0.93463000  0.59847100  1
  H  H85  1  0.21914100  0.95396400  0.65947800  1
  H  H86  1  0.24537500  0.02536000  0.60525200  1
  H  H87  1  0.21701900  0.03283200  0.66640400  1
  H  H88  1  0.20355100  0.05450400  0.60089700  1
  H  H89  1  0.49793600  0.67012900  0.85926200  1
  H  H90  1  0.46006900  0.74059000  0.90596600  1
  H  H91  1  0.43682900  0.69584500  0.89624100  1
  H  H92  1  0.45769200  0.71999900  0.83730900  1
  H  H93  1  0.52709000  0.74616100  0.89476300  1
  H  H94  1  0.53672200  0.71763600  0.83446400  1
  H  H95  1  0.55656600  0.70468800  0.90147400  1
  H  H96  1  0.67003600  0.50601600  0.85924000  1
  H  H97  1  0.74088800  0.54199400  0.90777600  1
  H  H98  1  0.69622400  0.56581700  0.90055400  1
  H  H99  1  0.71979100  0.54677200  0.83975400  1
  H  H100  1  0.74586800  0.47529600  0.89306000  1
  H  H101  1  0.71757800  0.46793400  0.83181000  1
  H  H102  1  0.70414200  0.44598200  0.89712300  1
  H  H103  1  0.50541800  0.33047700  0.86094200  1
  H  H104  1  0.54144800  0.25929800  0.90824100  1
  H  H105  1  0.56537400  0.30394800  0.90153200  1
  H  H106  1  0.54604200  0.28086200  0.84052400  1
  H  H107  1  0.47464500  0.25462900  0.89474500  1
  H  H108  1  0.46717300  0.28298600  0.83359500  1
  H  H109  1  0.44550100  0.29645300  0.89910200  1
  H  H110  1  0.33037600  0.49891200  0.86101300  1
  H  H111  1  0.25960800  0.46098200  0.90650200  1
  H  H112  1  0.30434700  0.43765100  0.89715400  1
  H  H113  1  0.28061300  0.45885300  0.83811100  1
  H  H114  1  0.25431600  0.52808300  0.89648400  1
  H  H115  1  0.28294300  0.53788300  0.83635200  1
  H  H116  1  0.29587300  0.55739000  0.90358800  1
  H  H117  1  0.50223100  0.66953700  0.13906900  1
  H  H118  1  0.54029600  0.74010000  0.09307400  1
  H  H119  1  0.56342000  0.69525100  0.10235000  1
  H  H120  1  0.54261000  0.71918900  0.16152000  1
  H  H121  1  0.47328600  0.74578900  0.10421600  1
  H  H122  1  0.46357800  0.71706500  0.16428000  1
  H  H123  1  0.44370500  0.70441700  0.09716200  1
  H  H124  1  0.33002100  0.50156900  0.14086300  1
  H  H125  1  0.25951100  0.53976500  0.09497400  1
  H  H126  1  0.30430700  0.56293100  0.10461400  1
  H  H127  1  0.28033300  0.54179700  0.16349500  1
  H  H128  1  0.25394900  0.47267800  0.10494700  1
  H  H129  1  0.28238800  0.46276300  0.16523500  1
  H  H130  1  0.29541900  0.44322400  0.09806200  1
  H  H131  1  0.49452900  0.32993100  0.14033900  1
  H  H132  1  0.45814600  0.25912800  0.09236700  1
  H  H133  1  0.43443100  0.30384200  0.09972000  1
  H  H134  1  0.45376100  0.28033300  0.16036900  1
  H  H135  1  0.52494900  0.25408600  0.10589000  1
  H  H136  1  0.53263600  0.28223000  0.16719900  1
  H  H137  1  0.55427500  0.29579300  0.10171300  1
  H  H138  1  0.66961900  0.49350600  0.13849000  1
  H  H139  1  0.74045000  0.45722100  0.09039100  1
  H  H140  1  0.69567100  0.43358900  0.09740000  1
  H  H141  1  0.71917000  0.45256400  0.15830500  1
  H  H142  1  0.74567200  0.52390400  0.10516200  1
  H  H143  1  0.71721900  0.53141200  0.16620300  1
  H  H144  1  0.70408200  0.55339200  0.10077500  1
  H  H145  1  0.98603800  0.41661100  0.39917400  1
  H  H146  1  0.00900600  0.34512700  0.33745800  1
  H  H147  1  0.04184900  0.37758600  0.36965500  1
  H  H148  1  0.01061000  0.39345700  0.31477000  1
  H  H149  1  0.94243700  0.34687600  0.36186600  1
  H  H150  1  0.93846700  0.39477700  0.33763500  1
  H  H151  1  0.92430600  0.38289800  0.40825700  1
  H  H152  1  0.41654000  0.01432500  0.39955300  1
  H  H153  1  0.34498200  0.99184000  0.33766600  1
  H  H154  1  0.37735800  0.95874500  0.36947400  1
  H  H155  1  0.39330200  0.99022600  0.31494700  1
  H  H156  1  0.34682200  0.05825100  0.36300200  1
  H  H157  1  0.39468600  0.06225800  0.33861500  1
  H  H158  1  0.38296500  0.07606800  0.40945100  1
  H  H159  1  0.01662600  0.58364000  0.40055500  1
  H  H160  1  0.99419300  0.65509900  0.33825400  1
  H  H161  1  0.96109800  0.62206900  0.36850500  1
  H  H162  1  0.99371500  0.60685600  0.31500600  1
  H  H163  1  0.06032700  0.65375400  0.36522600  1
  H  H164  1  0.06530100  0.60584900  0.34146900  1
  H  H165  1  0.07780800  0.61802300  0.41266900  1
  H  H166  1  0.58359400  0.98402500  0.40010500  1
  H  H167  1  0.65495400  0.00704300  0.33800000  1
  H  H168  1  0.62181900  0.03984700  0.36869400  1
  H  H169  1  0.60670300  0.00749000  0.31478400  1
  H  H170  1  0.65377100  0.94072800  0.36398300  1
  H  H171  1  0.60584000  0.93576000  0.34034300  1
  H  H172  1  0.61816900  0.92286800  0.41133100  1
  H  H173  1  0.01245500  0.41642600  0.60032100  1
  H  H174  1  0.98984800  0.34468600  0.66167400  1
  H  H175  1  0.95683900  0.37707100  0.62969200  1
  H  H176  1  0.98803200  0.39295100  0.68463000  1
  H  H177  1  0.05639900  0.34681100  0.63721600  1
  H  H178  1  0.06015400  0.39467400  0.66169300  1
  H  H179  1  0.07433700  0.38302700  0.59099500  1
  H  H180  1  0.58325300  0.01463500  0.59980600  1
  H  H181  1  0.65459200  0.99204100  0.66230500  1
  H  H182  1  0.62172800  0.95904000  0.63143300  1
  H  H183  1  0.60628600  0.99131200  0.68525100  1
  H  H184  1  0.65307800  0.05834800  0.63630700  1
  H  H185  1  0.60505800  0.06303100  0.65967200  1
  H  H186  1  0.61749200  0.07599100  0.58875300  1
  H  H187  1  0.98503100  0.58321700  0.59996000  1
  H  H188  1  0.00700800  0.65459300  0.66282900  1
  H  H189  1  0.04032000  0.62187700  0.63234700  1
  H  H190  1  0.00777500  0.60627300  0.68569300  1
  H  H191  1  0.94090500  0.65296400  0.63572900  1
  H  H192  1  0.93620600  0.60495900  0.65916700  1
  H  H193  1  0.92365500  0.61727000  0.58803600  1
  H  H194  1  0.41648300  0.98706000  0.60049700  1
  H  H195  1  0.34469400  0.00907300  0.66218400  1
  H  H196  1  0.37691900  0.04238200  0.63053100  1
  H  H197  1  0.39296900  0.01096600  0.68507400  1
  H  H198  1  0.34699100  0.94268500  0.63679500  1
  H  H199  1  0.39484700  0.93896300  0.66131900  1
  H  H200  1  0.38330600  0.92511800  0.59043300  1
  H  H201  1  0.48536800  0.91674900  0.90019200  1
  H  H202  1  0.50796100  0.84541000  0.83769300  1
  H  H203  1  0.54096400  0.87827300  0.86856200  1
  H  H204  1  0.50869000  0.89371600  0.81474500  1
  H  H205  1  0.44165600  0.84692300  0.86369400  1
  H  H206  1  0.43697200  0.89494300  0.84032900  1
  H  H207  1  0.42401300  0.88250900  0.91124900  1
  H  H208  1  0.91678900  0.51496400  0.90004300  1
  H  H209  1  0.84541400  0.49297600  0.83717900  1
  H  H210  1  0.87813300  0.45966900  0.86766800  1
  H  H211  1  0.89373500  0.49221000  0.81431400  1
  H  H212  1  0.84704100  0.55908300  0.86426000  1
  H  H213  1  0.89504600  0.56378100  0.84082400  1
  H  H214  1  0.88273300  0.57633900  0.91195100  1
  H  H215  1  0.51294300  0.08352100  0.89950000  1
  H  H216  1  0.49093500  0.15531100  0.83781300  1
  H  H217  1  0.45762400  0.12308700  0.86946200  1
  H  H218  1  0.48904200  0.10703700  0.81492200  1
  H  H219  1  0.55732200  0.15301300  0.86320900  1
  H  H220  1  0.56104400  0.10515700  0.83868400  1
  H  H221  1  0.57488600  0.11669600  0.90957200  1
  H  H222  1  0.08357900  0.48756100  0.89968200  1
  H  H223  1  0.15531700  0.51017600  0.83833200  1
  H  H224  1  0.12293100  0.54318100  0.87032200  1
  H  H225  1  0.10705100  0.51199300  0.81537800  1
  H  H226  1  0.15319400  0.44362200  0.86277700  1
  H  H227  1  0.10533100  0.43986900  0.83829900  1
  H  H228  1  0.11697800  0.42567900  0.90899400  1
  H  H229  1  0.51598200  0.91641100  0.09989100  1
  H  H230  1  0.49296800  0.84505000  0.16199900  1
  H  H231  1  0.46016200  0.87818400  0.13130500  1
  H  H232  1  0.49252000  0.89330200  0.18521400  1
  H  H233  1  0.55928200  0.84623500  0.13601300  1
  H  H234  1  0.56424900  0.89416600  0.15965100  1
  H  H235  1  0.57714000  0.88183700  0.08866300  1
  H  H236  1  0.08339500  0.51396100  0.10083400  1
  H  H237  1  0.15487900  0.49098000  0.16254200  1
  H  H238  1  0.12241700  0.45814400  0.13033900  1
  H  H239  1  0.10654900  0.48937800  0.18523200  1
  H  H240  1  0.15313200  0.55755400  0.13815600  1
  H  H241  1  0.10523000  0.56152400  0.16238300  1
  H  H242  1  0.11711400  0.57569200  0.09176600  1
  H  H243  1  0.48567200  0.08346300  0.10044200  1
  H  H244  1  0.50815400  0.15502100  0.16233300  1
  H  H245  1  0.54125100  0.12264500  0.13052700  1
  H  H246  1  0.50976800  0.10670000  0.18505100  1
  H  H247  1  0.44174500  0.15317900  0.13699000  1
  H  H248  1  0.43773700  0.10531600  0.16137700  1
  H  H249  1  0.42393000  0.11703600  0.09054000  1
  H  H250  1  0.91636600  0.48338700  0.09945300  1
  H  H251  1  0.84490800  0.50583300  0.16174900  1
  H  H252  1  0.87794000  0.53892200  0.13148900  1
  H  H253  1  0.89315100  0.50631000  0.18499700  1
  H  H254  1  0.84625100  0.43969500  0.13479800  1
  H  H255  1  0.89415600  0.43472100  0.15855400  1
  H  H256  1  0.88197900  0.42220500  0.08735700  1
  C  C1  1  0.99918800  0.42644800  0.49978800  1
  C  C2  1  0.42645600  0.00077500  0.50005600  1
  C  C3  1  0.00086000  0.57354600  0.50022500  1
  C  C4  1  0.57355500  0.99925800  0.49994700  1
  C  C5  1  0.50074700  0.92644800  0.00005000  1
  C  C6  1  0.92646000  0.49914400  0.99978100  1
  C  C7  1  0.49922600  0.07354800  0.99994000  1
  C  C8  1  0.07355800  0.50081900  0.00021900  1
  C  C9  1  0.00082400  0.49979300  0.60967700  1
  C  C10  1  0.49999300  0.99935900  0.60967300  1
  C  C11  1  0.99922300  0.50021600  0.39033000  1
  C  C12  1  0.50003200  0.00067400  0.39032300  1
  C  C13  1  0.49933000  0.99997200  0.10967300  1
  C  C14  1  0.99978900  0.50078200  0.10967600  1
  C  C15  1  0.50064500  0.00001000  0.89032300  1
  C  C16  1  0.00021300  0.49918100  0.89033000  1
  C  C17  1  0.00069600  0.49965900  0.66984300  1
  C  C18  1  0.50005500  0.99955800  0.66983900  1
  C  C19  1  0.99935100  0.50033700  0.33016400  1
  C  C20  1  0.49995700  0.00047100  0.33015800  1
  C  C21  1  0.49953200  0.00004700  0.16983900  1
  C  C22  1  0.99966800  0.50065500  0.16984200  1
  C  C23  1  0.50044500  0.99994800  0.83015800  1
  C  C24  1  0.00034700  0.49930900  0.83016300  1
  C  C25  1  0.00058700  0.49954700  0.72039100  1
  C  C26  1  0.50014800  0.99970800  0.72038600  1
  C  C27  1  0.99945400  0.50043600  0.27961500  1
  C  C28  1  0.49985100  0.00031300  0.27961000  1
  C  C29  1  0.49969000  0.00015300  0.22038600  1
  C  C30  1  0.99957000  0.50055200  0.22039100  1
  C  C31  1  0.50029500  0.99985500  0.77961000  1
  C  C32  1  0.00045900  0.49941800  0.77961500  1
  C  C33  1  0.99885800  0.17341900  0.44834000  1
  C  C34  1  0.17345900  0.00241400  0.44874700  1
  C  C35  1  0.00291200  0.82669800  0.45052900  1
  C  C36  1  0.82673500  0.99871100  0.45009900  1
  C  C37  1  0.00064200  0.17329200  0.54981000  1
  C  C38  1  0.82651800  0.00109600  0.55154100  1
  C  C39  1  0.99760300  0.82654700  0.55172500  1
  C  C40  1  0.17326100  0.99772400  0.55001100  1
  C  C41  1  0.49891100  0.67348500  0.94846000  1
  C  C42  1  0.67345900  0.50239600  0.94827700  1
  C  C43  1  0.50228000  0.32674200  0.94998900  1
  C  C44  1  0.32671400  0.49936800  0.95019200  1
  C  C45  1  0.50129700  0.67326900  0.04990300  1
  C  C46  1  0.32658700  0.50114400  0.05166300  1
  C  C47  1  0.49758800  0.32654400  0.05125300  1
  C  C48  1  0.67330700  0.49709300  0.04947300  1
  C  C49  1  0.99903500  0.13449800  0.44901800  1
  C  C50  1  0.13453800  0.00225400  0.44935800  1
  C  C51  1  0.00270600  0.86561600  0.45143200  1
  C  C52  1  0.86565300  0.99888000  0.45107000  1
  C  C53  1  0.00058800  0.13437300  0.54890800  1
  C  C54  1  0.86544000  0.00100200  0.55093700  1
  C  C55  1  0.99767000  0.86546900  0.55106600  1
  C  C56  1  0.13434200  0.99780500  0.54905400  1
  C  C57  1  0.49900500  0.63456300  0.94906500  1
  C  C58  1  0.63453700  0.50232800  0.94893500  1
  C  C59  1  0.50220000  0.36566200  0.95094700  1
  C  C60  1  0.36563300  0.49942100  0.95109400  1
  C  C61  1  0.50112900  0.63435100  0.04893200  1
  C  C62  1  0.36550800  0.50096700  0.05098400  1
  C  C63  1  0.49774800  0.36546500  0.05064300  1
  C  C64  1  0.63438900  0.49729900  0.04857000  1
  C  C65  1  0.99984100  0.11493600  0.49890700  1
  C  C66  1  0.11494000  0.00001800  0.49911900  1
  C  C67  1  0.00015500  0.88504200  0.50131000  1
  C  C68  1  0.88504500  0.99995300  0.50109600  1
  C  C69  1  0.50005500  0.61495800  0.99890600  1
  C  C70  1  0.61496400  0.49984700  0.99869200  1
  C  C71  1  0.49998500  0.38506300  0.00088200  1
  C  C72  1  0.38507000  0.50016500  0.00109500  1
  C  C73  1  0.99971700  0.19307200  0.49913100  1
  C  C74  1  0.19307700  0.00009700  0.49946800  1
  C  C75  1  0.00029400  0.80690600  0.50106600  1
  C  C76  1  0.80691000  0.99987800  0.50072700  1
  C  C77  1  0.50013000  0.69309300  0.99927400  1
  C  C78  1  0.69310000  0.49970800  0.99893700  1
  C  C79  1  0.49990500  0.30692600  0.00053200  1
  C  C80  1  0.30693400  0.50028900  0.00087100  1
  C  C81  1  0.99964300  0.23349100  0.49924800  1
  C  C82  1  0.23349400  0.00017200  0.49964600  1
  C  C83  1  0.00037500  0.76648800  0.50093700  1
  C  C84  1  0.76649100  0.99980800  0.50054000  1
  C  C85  1  0.50020000  0.73351200  0.99946100  1
  C  C86  1  0.73351800  0.49962700  0.99906600  1
  C  C87  1  0.49982900  0.26650900  0.00035400  1
  C  C88  1  0.26651500  0.50036400  0.00075500  1
  C  C89  1  0.99957600  0.26740400  0.49934500  1
  C  C90  1  0.26740800  0.00025100  0.49976600  1
  C  C91  1  0.00044800  0.73257400  0.50081900  1
  C  C92  1  0.73257800  0.99974000  0.50039700  1
  C  C93  1  0.50026700  0.76742500  0.99960300  1
  C  C94  1  0.76743200  0.49955500  0.99918500  1
  C  C95  1  0.49975000  0.23259500  0.00023300  1
  C  C96  1  0.23260200  0.50043100  0.00065800  1
  C  C97  1  0.99181000  0.32689500  0.45084500  1
  C  C98  1  0.32687000  0.00834400  0.45132800  1
  C  C99  1  0.00926000  0.67322900  0.45231500  1
  C  C100  1  0.67321700  0.99124800  0.45179500  1
  C  C101  1  0.00708500  0.32681000  0.54817000  1
  C  C102  1  0.67304200  0.00794200  0.54860700  1
  C  C103  1  0.99192100  0.67302000  0.54887200  1
  C  C104  1  0.32684300  0.99249800  0.54844900  1
  C  C105  1  0.49206400  0.82696000  0.95139200  1
  C  C106  1  0.82698500  0.50807700  0.95113000  1
  C  C107  1  0.50750400  0.17316000  0.95155000  1
  C  C108  1  0.17319500  0.49292800  0.95183200  1
  C  C109  1  0.50876000  0.82678700  0.04820400  1
  C  C110  1  0.17311100  0.50819300  0.04916100  1
  C  C111  1  0.49165500  0.17313300  0.04866900  1
  C  C112  1  0.82677600  0.49074900  0.04769300  1
  C  C113  1  0.99177800  0.36579600  0.45008900  1
  C  C114  1  0.36576900  0.00839300  0.45052200  1
  C  C115  1  0.00936500  0.63433000  0.45132400  1
  C  C116  1  0.63431700  0.99111300  0.45085100  1
  C  C117  1  0.00692800  0.36571000  0.54914100  1
  C  C118  1  0.63414200  0.00784100  0.54933200  1
  C  C119  1  0.99202200  0.63411800  0.54957000  1
  C  C120  1  0.36574400  0.99270400  0.54938900  1
  C  C121  1  0.49216400  0.86586100  0.95066700  1
  C  C122  1  0.86588800  0.50797600  0.95043400  1
  C  C123  1  0.50729900  0.13425900  0.95060900  1
  C  C124  1  0.13429500  0.49308400  0.95086200  1
  C  C125  1  0.50889500  0.86568700  0.04914700  1
  C  C126  1  0.13421000  0.50822400  0.04991700  1
  C  C127  1  0.49160600  0.13423400  0.04947500  1
  C  C128  1  0.86567500  0.49064500  0.04868400  1
  C  C129  1  0.99929700  0.38535000  0.49967200  1
  C  C130  1  0.38535600  0.00062400  0.49999300  1
  C  C131  1  0.00075000  0.61463500  0.50037400  1
  C  C132  1  0.61464200  0.99941000  0.50003800  1
  C  C133  1  0.50059600  0.88536100  0.99996000  1
  C  C134  1  0.88537100  0.49925400  0.99963100  1
  C  C135  1  0.49937700  0.11464700  0.00000400  1
  C  C136  1  0.11465600  0.50071000  0.00033300  1
  C  C137  1  0.99949000  0.30768600  0.49945600  1
  C  C138  1  0.30769000  0.00036300  0.49985400  1
  C  C139  1  0.00054300  0.69229100  0.50066700  1
  C  C140  1  0.69229600  0.99964800  0.50025900  1
  C  C141  1  0.50035900  0.80770700  0.99974100  1
  C  C142  1  0.80771400  0.49946000  0.99933800  1
  C  C143  1  0.49963700  0.19231300  0.00014400  1
  C  C144  1  0.19231900  0.50051800  0.00054800  1
  C  C145  1  0.92635500  0.99996400  0.50129100  1
  C  C146  1  0.99990500  0.07362500  0.49879200  1
  C  C147  1  0.07362900  0.00000900  0.49893100  1
  C  C148  1  0.00008300  0.92635200  0.50143100  1
  C  C149  1  0.42638000  0.50010000  0.00121000  1
  C  C150  1  0.50004300  0.57364900  0.99871100  1
  C  C151  1  0.57365300  0.49991900  0.99857100  1
  C  C152  1  0.49999500  0.42637400  0.00107000  1
  C  C153  1  0.99762400  0.19226100  0.39160400  1
  C  C154  1  0.96104100  0.21352600  0.38194100  1
  C  C155  1  0.03188100  0.21682300  0.38059200  1
  C  C156  1  0.19233600  0.00522300  0.39216200  1
  C  C157  1  0.21376500  0.04195800  0.38487600  1
  C  C158  1  0.21674100  0.97120200  0.37896000  1
  C  C159  1  0.00610600  0.80801500  0.39384700  1
  C  C160  1  0.04293100  0.78668600  0.38691600  1
  C  C161  1  0.97222400  0.78357700  0.38000200  1
  C  C162  1  0.80808500  0.99713200  0.39324200  1
  C  C163  1  0.78689800  0.96046700  0.38389300  1
  C  C164  1  0.78351200  0.03128800  0.38161400  1
  C  C165  1  0.00182100  0.19199100  0.60665200  1
  C  C166  1  0.03833000  0.21336100  0.61642200  1
  C  C167  1  0.96748000  0.21640400  0.61781900  1
  C  C168  1  0.80762600  0.00264600  0.60822100  1
  C  C169  1  0.78630200  0.03925800  0.61734200  1
  C  C170  1  0.78309800  0.96842800  0.61965100  1
  C  C171  1  0.99447200  0.80769200  0.60828800  1
  C  C172  1  0.95773400  0.78619300  0.61506600  1
  C  C173  1  0.02845000  0.78335300  0.62199400  1
  C  C174  1  0.19192100  0.99494600  0.60675900  1
  C  C175  1  0.21346900  0.95829200  0.61417400  1
  C  C176  1  0.21613900  0.02905400  0.62022900  1
  C  C177  1  0.49736100  0.69237700  0.89178000  1
  C  C178  1  0.46075000  0.71370100  0.88265900  1
  C  C179  1  0.53157900  0.71690500  0.88035000  1
  C  C180  1  0.69231500  0.50552300  0.89171400  1
  C  C181  1  0.71381300  0.54226100  0.88493100  1
  C  C182  1  0.71665400  0.47154400  0.87801300  1
  C  C183  1  0.50505900  0.30808200  0.89324100  1
  C  C184  1  0.54171300  0.28653500  0.88582800  1
  C  C185  1  0.47095100  0.28386500  0.87977000  1
  C  C186  1  0.30801400  0.49819400  0.89335000  1
  C  C187  1  0.28664300  0.46168600  0.88357500  1
  C  C188  1  0.28360300  0.53253600  0.88218900  1
  C  C189  1  0.50287800  0.69191900  0.10675900  1
  C  C190  1  0.53954300  0.71310600  0.11610600  1
  C  C191  1  0.46872200  0.71649200  0.11838800  1
  C  C192  1  0.30774500  0.50237400  0.10839800  1
  C  C193  1  0.28648000  0.53895600  0.11806800  1
  C  C194  1  0.28318300  0.46811700  0.11940500  1
  C  C195  1  0.49477600  0.30766700  0.10783800  1
  C  C196  1  0.45804100  0.28623800  0.11512100  1
  C  C197  1  0.52879700  0.28326100  0.12104300  1
  C  C198  1  0.69199000  0.49390200  0.10615600  1
  C  C199  1  0.71332000  0.45707900  0.11309200  1
  C  C200  1  0.71642700  0.52778500  0.11999800  1
  C  C201  1  0.98425000  0.38572300  0.39532200  1
  C  C202  1  0.01324900  0.37453500  0.35158000  1
  C  C203  1  0.94487900  0.37679800  0.37445800  1
  C  C204  1  0.38565200  0.01619000  0.39580100  1
  C  C205  1  0.37437900  0.98744600  0.35173100  1
  C  C206  1  0.37676300  0.05568500  0.37543600  1
  C  C207  1  0.01820400  0.61455200  0.39687400  1
  C  C208  1  0.99003300  0.62556900  0.35185400  1
  C  C209  1  0.05791400  0.62384000  0.37787000  1
  C  C210  1  0.61450700  0.98255400  0.39632900  1
  C  C211  1  0.62541300  0.01102200  0.35166700  1
  C  C212  1  0.62387200  0.94298300  0.37677200  1
  C  C213  1  0.01438700  0.38553800  0.60400800  1
  C  C214  1  0.98546200  0.37410900  0.64771900  1
  C  C215  1  0.05380900  0.37675000  0.62478400  1
  C  C216  1  0.61414600  0.01628600  0.60374500  1
  C  C217  1  0.62510900  0.98788700  0.64847400  1
  C  C218  1  0.62322700  0.05591400  0.62334800  1
  C  C219  1  0.98327300  0.61410800  0.60386400  1
  C  C220  1  0.01135700  0.62513800  0.64899800  1
  C  C221  1  0.94350000  0.62310200  0.62289200  1
  C  C222  1  0.38560100  0.98500500  0.60416000  1
  C  C223  1  0.37408700  0.01365400  0.64822700  1
  C  C224  1  0.37693200  0.94544300  0.62445200  1
  C  C225  1  0.48371800  0.88585500  0.89625300  1
  C  C226  1  0.51211600  0.87489300  0.85152300  1
  C  C227  1  0.44409000  0.87677400  0.87665300  1
  C  C228  1  0.88589900  0.51672000  0.89613800  1
  C  C229  1  0.87486900  0.48863000  0.85101100  1
  C  C230  1  0.87690300  0.55649000  0.87709900  1
  C  C231  1  0.51500000  0.11440300  0.89583800  1
  C  C232  1  0.48635300  0.12591800  0.85176900  1
  C  C233  1  0.55456200  0.12307100  0.87555000  1
  C  C234  1  0.11446600  0.48563000  0.89599400  1
  C  C235  1  0.12589400  0.51456000  0.85228900  1
  C  C236  1  0.12325500  0.44621000  0.87521000  1
  C  C237  1  0.51745500  0.88549800  0.10366800  1
  C  C238  1  0.48898700  0.87459100  0.14833200  1
  C  C239  1  0.55702600  0.87613300  0.12322300  1
  C  C240  1  0.11428400  0.51574700  0.10468700  1
  C  C241  1  0.12547000  0.48674200  0.14842100  1
  C  C242  1  0.12321100  0.55511500  0.12556100  1
  C  C243  1  0.48380700  0.11435100  0.10419500  1
  C  C244  1  0.51254900  0.12562300  0.14826700  1
  C  C245  1  0.44431100  0.12323800  0.12455600  1
  C  C246  1  0.88545400  0.48181200  0.10313600  1
  C  C247  1  0.87443900  0.50998900  0.14814800  1
  C  C248  1  0.87616400  0.44210400  0.12215200  1
  O  O1  1  0.03168100  0.44397400  0.50118100  1
  O  O2  1  0.44401800  0.96830100  0.50146900  1
  O  O3  1  0.96836200  0.55602400  0.49899500  1
  O  O4  1  0.55600000  0.03173700  0.49869500  1
  O  O5  1  0.96662100  0.44380100  0.49843900  1
  O  O6  1  0.55624400  0.96667000  0.50126900  1
  O  O7  1  0.03343200  0.55619800  0.50140200  1
  O  O8  1  0.44377500  0.03335800  0.49856400  1
  O  O9  1  0.53333500  0.94376000  0.99872800  1
  O  O10  1  0.94380800  0.46657300  0.99860400  1
  O  O11  1  0.46664400  0.05622700  0.00143200  1
  O  O12  1  0.05620400  0.53338600  0.00156700  1
  O  O13  1  0.46826800  0.94400200  0.00130200  1
  O  O14  1  0.05603200  0.46832500  0.99882500  1
  O  O15  1  0.53170100  0.05598600  0.99852700  1
  O  O16  1  0.94398100  0.53164300  0.00101100  1
  O  O17  1  0.03339400  0.50075200  0.58381500  1
  O  O18  1  0.50093900  0.96675800  0.58389600  1
  O  O19  1  0.96834700  0.49896000  0.58348700  1
  O  O20  1  0.49908400  0.03180300  0.58340100  1
  O  O21  1  0.96665100  0.49937300  0.41619200  1
  O  O22  1  0.50081000  0.96822600  0.41659600  1
  O  O23  1  0.03170300  0.50091300  0.41651900  1
  O  O24  1  0.49920500  0.03327700  0.41610100  1
  O  O25  1  0.53177700  0.99919400  0.08340000  1
  O  O26  1  0.99909300  0.46830200  0.08348700  1
  O  O27  1  0.46672600  0.00079800  0.08389600  1
  O  O28  1  0.00063200  0.53335500  0.08381400  1
  O  O29  1  0.46820000  0.00091900  0.91659500  1
  O  O30  1  0.99925400  0.46661100  0.91619100  1
  O  O31  1  0.53324500  0.99906500  0.91610000  1
  O  O32  1  0.00104600  0.53165800  0.91651900  1
  O  O33  1  0.94391200  0.99920500  0.54970800  1
  O  O34  1  0.99915000  0.05589800  0.54710200  1
  O  O35  1  0.05586100  0.99916700  0.54720500  1
  O  O36  1  0.99914000  0.94395000  0.54980900  1
  O  O37  1  0.05607100  0.00088000  0.45051900  1
  O  O38  1  0.00073500  0.05602700  0.45041000  1
  O  O39  1  0.94412200  0.00070000  0.45301300  1
  O  O40  1  0.00094300  0.94408000  0.45312500  1
  O  O41  1  0.44397900  0.49926900  0.04959200  1
  O  O42  1  0.49930600  0.55588100  0.04698900  1
  O  O43  1  0.55592600  0.49905900  0.04687700  1
  O  O44  1  0.49912500  0.44393200  0.04948200  1
  O  O45  1  0.55605600  0.50086200  0.95019300  1
  O  O46  1  0.50080100  0.55609200  0.95029400  1
  O  O47  1  0.44410800  0.50085500  0.95290000  1
  O  O48  1  0.50083800  0.44414200  0.95279600  1
