# generated using pymatgen
data_Zn3H64C86(NO8)2
_symmetry_space_group_name_H-M   'P 1'
_cell_length_a   21.54668600
_cell_length_b   21.54655900
_cell_length_c   55.24430500
_cell_angle_alpha   90.00000000
_cell_angle_beta   90.00000000
_cell_angle_gamma   90.00000000
_symmetry_Int_Tables_number   1
_chemical_formula_structural   Zn3H64C86(NO8)2
_chemical_formula_sum   'Zn12 H256 C344 N8 O64'
_cell_volume   25647.55205545
_cell_formula_units_Z   4
loop_
 _symmetry_equiv_pos_site_id
 _symmetry_equiv_pos_as_xyz
  1  'x, y, z'
loop_
 _atom_site_type_symbol
 _atom_site_label
 _atom_site_symmetry_multiplicity
 _atom_site_fract_x
 _atom_site_fract_y
 _atom_site_fract_z
 _atom_site_occupancy
  Zn  Zn1  1  0.00009300  0.00033900  0.01675100  1
  Zn  Zn2  1  0.50009600  0.50034200  0.51675100  1
  Zn  Zn3  1  0.99995700  0.00024300  0.96193800  1
  Zn  Zn4  1  0.49996100  0.50024600  0.46193800  1
  Zn  Zn5  1  0.50042200  0.07039200  0.99202600  1
  Zn  Zn6  1  0.93050000  0.50073200  0.99208100  1
  Zn  Zn7  1  0.49957500  0.92986300  0.99199100  1
  Zn  Zn8  1  0.07102000  0.49982200  0.99193200  1
  Zn  Zn9  1  0.00042500  0.57039500  0.49202600  1
  Zn  Zn10  1  0.43050300  0.00073500  0.49208100  1
  Zn  Zn11  1  0.99957800  0.42986600  0.49199100  1
  Zn  Zn12  1  0.57102300  0.99982500  0.49193200  1
  H  H1  1  0.90196500  0.49074200  0.87108300  1
  H  H2  1  0.50979300  0.90102600  0.87073200  1
  H  H3  1  0.09892800  0.51009900  0.87057900  1
  H  H4  1  0.49093100  0.09804000  0.87093200  1
  H  H5  1  0.40196800  0.99074000  0.37108400  1
  H  H6  1  0.00979600  0.40102900  0.37073200  1
  H  H7  1  0.59893000  0.01010700  0.37057900  1
  H  H8  1  0.99093200  0.59804300  0.37093200  1
  H  H9  1  0.19410200  0.96021700  0.02512300  1
  H  H10  1  0.03823000  0.19387600  0.02549600  1
  H  H11  1  0.80561900  0.03906600  0.02617000  1
  H  H12  1  0.95959000  0.80537900  0.02578800  1
  H  H13  1  0.69410500  0.46022100  0.52512400  1
  H  H14  1  0.53823300  0.69387900  0.52549600  1
  H  H15  1  0.30562100  0.53906900  0.52617000  1
  H  H16  1  0.45959300  0.30538100  0.52578800  1
  H  H17  1  0.19427600  0.04382400  0.02495800  1
  H  H18  1  0.95465800  0.19504100  0.02461800  1
  H  H19  1  0.80484900  0.95548600  0.02555800  1
  H  H20  1  0.04318200  0.80561300  0.02589800  1
  H  H21  1  0.69427800  0.54382700  0.52495800  1
  H  H22  1  0.45466000  0.69504400  0.52461800  1
  H  H23  1  0.30485000  0.45548800  0.52555800  1
  H  H24  1  0.54318600  0.30561500  0.52589800  1
  H  H25  1  0.29359600  0.95269100  0.02371600  1
  H  H26  1  0.04724400  0.29330200  0.02387900  1
  H  H27  1  0.70610700  0.04749100  0.02431100  1
  H  H28  1  0.95267200  0.70581200  0.02415500  1
  H  H29  1  0.79359900  0.45269500  0.52371600  1
  H  H30  1  0.54724600  0.79330500  0.52387900  1
  H  H31  1  0.20611000  0.54749200  0.52431100  1
  H  H32  1  0.45267500  0.20581400  0.52415500  1
  H  H33  1  0.19789700  0.90195000  0.98577800  1
  H  H34  1  0.09865500  0.19809800  0.98661000  1
  H  H35  1  0.80182900  0.09869400  0.98711900  1
  H  H36  1  0.90214300  0.80207500  0.98628600  1
  H  H37  1  0.69790000  0.40195200  0.48577800  1
  H  H38  1  0.59865800  0.69810100  0.48661000  1
  H  H39  1  0.30183300  0.59869700  0.48711900  1
  H  H40  1  0.40214600  0.30207800  0.48628600  1
  H  H41  1  0.30152600  0.90142600  0.98759500  1
  H  H42  1  0.09943800  0.30177500  0.98803200  1
  H  H43  1  0.69812800  0.09903500  0.98820600  1
  H  H44  1  0.90202700  0.69842000  0.98778200  1
  H  H45  1  0.80153000  0.40142900  0.48759500  1
  H  H46  1  0.59944100  0.80177800  0.48803200  1
  H  H47  1  0.19813000  0.59903700  0.48820700  1
  H  H48  1  0.40203100  0.19842300  0.48778200  1
  H  H49  1  0.19806300  0.06036800  0.95783700  1
  H  H50  1  0.94158600  0.19856500  0.95746900  1
  H  H51  1  0.80251800  0.94114600  0.95841100  1
  H  H52  1  0.06100100  0.80300800  0.95878200  1
  H  H53  1  0.69806700  0.56037000  0.45783700  1
  H  H54  1  0.44159000  0.69856800  0.45746800  1
  H  H55  1  0.30252200  0.44114900  0.45841100  1
  H  H56  1  0.56100400  0.30301100  0.45878300  1
  H  H57  1  0.19856800  0.10102300  0.98634000  1
  H  H58  1  0.89958600  0.19906500  0.98568900  1
  H  H59  1  0.80179100  0.89961300  0.98673100  1
  H  H60  1  0.10119800  0.80226400  0.98737600  1
  H  H61  1  0.69857200  0.60102600  0.48634000  1
  H  H62  1  0.39958900  0.69906800  0.48568900  1
  H  H63  1  0.30179500  0.39961600  0.48673000  1
  H  H64  1  0.60120200  0.30226700  0.48737600  1
  H  H65  1  0.30415500  0.10211000  0.98310300  1
  H  H66  1  0.89890300  0.30457200  0.98266500  1
  H  H67  1  0.69634600  0.89835700  0.98347300  1
  H  H68  1  0.10282500  0.69672000  0.98391800  1
  H  H69  1  0.80415800  0.60211300  0.48310300  1
  H  H70  1  0.39890600  0.80457500  0.48266500  1
  H  H71  1  0.19634800  0.39836000  0.48347300  1
  H  H72  1  0.60282800  0.19672300  0.48391800  1
  H  H73  1  0.30111800  0.05232000  0.95749900  1
  H  H74  1  0.94942300  0.30169000  0.95728300  1
  H  H75  1  0.69938800  0.94839200  0.95794900  1
  H  H76  1  0.05353400  0.69994100  0.95817000  1
  H  H77  1  0.80112000  0.55232100  0.45749800  1
  H  H78  1  0.44942700  0.80169300  0.45728300  1
  H  H79  1  0.19939100  0.44839500  0.45794900  1
  H  H80  1  0.55353700  0.19994400  0.45817000  1
  H  H81  1  0.20142200  0.94405600  0.95756000  1
  H  H82  1  0.05810200  0.20131300  0.95804300  1
  H  H83  1  0.79936300  0.05760300  0.95865700  1
  H  H84  1  0.94478500  0.79927200  0.95817700  1
  H  H85  1  0.70142500  0.44405800  0.45756000  1
  H  H86  1  0.55810600  0.70131600  0.45804400  1
  H  H87  1  0.29936700  0.55760600  0.45865800  1
  H  H88  1  0.44478900  0.29927400  0.45817700  1
  H  H89  1  0.30560000  0.94296200  0.95935600  1
  H  H90  1  0.05863100  0.30546300  0.95962500  1
  H  H91  1  0.69514100  0.05760300  0.95993400  1
  H  H92  1  0.94416700  0.69502400  0.95967500  1
  H  H93  1  0.80560400  0.44296500  0.45935700  1
  H  H94  1  0.55863500  0.80546600  0.45962500  1
  H  H95  1  0.19514400  0.55760700  0.45993500  1
  H  H96  1  0.44417100  0.19502700  0.45967500  1
  H  H97  1  0.91199700  0.62668500  0.80210400  1
  H  H98  1  0.37339700  0.91255300  0.80202800  1
  H  H99  1  0.08697200  0.37328000  0.80199700  1
  H  H100  1  0.62742900  0.08661300  0.80208000  1
  H  H101  1  0.41199000  0.12668100  0.30210400  1
  H  H102  1  0.87339900  0.41255300  0.30202900  1
  H  H103  1  0.58698300  0.87328800  0.30199700  1
  H  H104  1  0.12742800  0.58661700  0.30207900  1
  H  H105  1  0.61065400  0.89161200  0.22447300  1
  H  H106  1  0.10943400  0.61048900  0.22454200  1
  H  H107  1  0.38706800  0.10787200  0.22463300  1
  H  H108  1  0.89218500  0.38785200  0.22455600  1
  H  H109  1  0.11064500  0.39160200  0.72447300  1
  H  H110  1  0.60943800  0.11048600  0.72454300  1
  H  H111  1  0.88707700  0.60788200  0.72463200  1
  H  H112  1  0.39218400  0.88785300  0.72455600  1
  H  H113  1  0.90221300  0.49142900  0.91509900  1
  H  H114  1  0.50928800  0.90024100  0.91473400  1
  H  H115  1  0.10014200  0.50971800  0.91458800  1
  H  H116  1  0.49147800  0.09822000  0.91495600  1
  H  H117  1  0.40221700  0.99142700  0.41509900  1
  H  H118  1  0.00929200  0.40024400  0.41473400  1
  H  H119  1  0.60014400  0.00972600  0.41458800  1
  H  H120  1  0.99148000  0.59822300  0.41495600  1
  H  H121  1  0.52121100  0.09681800  0.11327600  1
  H  H122  1  0.90428600  0.52165100  0.11325400  1
  H  H123  1  0.47676900  0.90404000  0.11288400  1
  H  H124  1  0.09700600  0.47694500  0.11290200  1
  H  H125  1  0.02121500  0.59682000  0.61327600  1
  H  H126  1  0.40428800  0.02165300  0.61325400  1
  H  H127  1  0.97676900  0.40404200  0.61288400  1
  H  H128  1  0.59700900  0.97694700  0.61290200  1
  H  H129  1  0.52183900  0.09773500  0.06917200  1
  H  H130  1  0.90343000  0.52229600  0.06916100  1
  H  H131  1  0.47689100  0.90414200  0.06877200  1
  H  H132  1  0.09696200  0.47710100  0.06877900  1
  H  H133  1  0.02184400  0.59773600  0.56917200  1
  H  H134  1  0.40343300  0.02229900  0.56916100  1
  H  H135  1  0.97689300  0.40414500  0.56877200  1
  H  H136  1  0.59696500  0.97710300  0.56877900  1
  H  H137  1  0.91034900  0.62809300  0.75974200  1
  H  H138  1  0.37200500  0.91112500  0.75966500  1
  H  H139  1  0.08784100  0.37156700  0.75963600  1
  H  H140  1  0.62918700  0.08767500  0.75972300  1
  H  H141  1  0.41034100  0.12808700  0.25974100  1
  H  H142  1  0.87200600  0.41112400  0.25966600  1
  H  H143  1  0.58785100  0.87157400  0.25963600  1
  H  H144  1  0.12918500  0.58767800  0.25972300  1
  H  H145  1  0.70285500  0.92064800  0.19138000  1
  H  H146  1  0.77046900  0.84276700  0.17282800  1
  H  H147  1  0.78517800  0.75194500  0.15068900  1
  H  H148  1  0.72630700  0.73852500  0.12799200  1
  H  H149  1  0.72541600  0.69460700  0.15588300  1
  H  H150  1  0.61135000  0.74374000  0.14786800  1
  H  H151  1  0.54368700  0.82172600  0.16667400  1
  H  H152  1  0.08112600  0.70281000  0.19143500  1
  H  H153  1  0.15952000  0.76996600  0.17295900  1
  H  H154  1  0.25056200  0.78414300  0.15090200  1
  H  H155  1  0.26384600  0.72518500  0.12822700  1
  H  H156  1  0.30750400  0.72405000  0.15617700  1
  H  H157  1  0.25772300  0.61027200  0.14806400  1
  H  H158  1  0.17921600  0.54306700  0.16678800  1
  H  H159  1  0.29472800  0.07841200  0.19141900  1
  H  H160  1  0.22681400  0.15608200  0.17289400  1
  H  H161  1  0.21176600  0.24695000  0.15081400  1
  H  H162  1  0.27074100  0.26081400  0.12819900  1
  H  H163  1  0.27116700  0.30459400  0.15612500  1
  H  H164  1  0.38556300  0.25614900  0.14820600  1
  H  H165  1  0.45352000  0.17837500  0.16698800  1
  H  H166  1  0.92130100  0.29537400  0.19138900  1
  H  H167  1  0.84343100  0.22783900  0.17278100  1
  H  H168  1  0.75267000  0.21323500  0.15059000  1
  H  H169  1  0.73932200  0.27225800  0.12794700  1
  H  H170  1  0.69528100  0.27293400  0.15581000  1
  H  H171  1  0.74435700  0.38707400  0.14795900  1
  H  H172  1  0.82232100  0.45465200  0.16682900  1
  H  H173  1  0.20284900  0.42063000  0.69138000  1
  H  H174  1  0.27045500  0.34274200  0.67282900  1
  H  H175  1  0.28515600  0.25191900  0.65068900  1
  H  H176  1  0.22628500  0.23850600  0.62799200  1
  H  H177  1  0.22538800  0.19458700  0.65588200  1
  H  H178  1  0.11132700  0.24373200  0.64786700  1
  H  H179  1  0.04367200  0.32172500  0.66666667  1
  H  H180  1  0.58113300  0.20280800  0.69143600  1
  H  H181  1  0.65952900  0.26996300  0.67296000  1
  H  H182  1  0.75057100  0.28413800  0.65090300  1
  H  H183  1  0.76385400  0.22517900  0.62822800  1
  H  H184  1  0.80751200  0.22404300  0.65617800  1
  H  H185  1  0.75772800  0.11026600  0.64806400  1
  H  H186  1  0.67921800  0.04306300  0.66678900  1
  H  H187  1  0.79473600  0.57843200  0.69141900  1
  H  H188  1  0.72682900  0.65610900  0.67289400  1
  H  H189  1  0.71179200  0.74697900  0.65081400  1
  H  H190  1  0.77076900  0.76083800  0.62819800  1
  H  H191  1  0.77119800  0.80461700  0.65612500  1
  H  H192  1  0.88558900  0.75616000  0.64820600  1
  H  H193  1  0.95353800  0.67837900  0.66698800  1
  H  H194  1  0.42129900  0.79537500  0.69138800  1
  H  H195  1  0.34342800  0.72784200  0.67278000  1
  H  H196  1  0.25266600  0.71324100  0.65058900  1
  H  H197  1  0.23932000  0.77226500  0.62794600  1
  H  H198  1  0.19527800  0.77294100  0.65580900  1
  H  H199  1  0.24435700  0.88708000  0.64795900  1
  H  H200  1  0.32232200  0.95465500  0.66682800  1
  H  H201  1  0.34709000  0.97383000  0.05692700  1
  H  H202  1  0.37968700  0.04368500  0.08878800  1
  H  H203  1  0.39337600  0.14304600  0.10462600  1
  H  H204  1  0.32880900  0.19351700  0.09776200  1
  H  H205  1  0.40193200  0.20307000  0.08209500  1
  H  H206  1  0.30781300  0.19754400  0.04948400  1
  H  H207  1  0.26836200  0.12794100  0.01881200  1
  H  H208  1  0.02614900  0.34680400  0.05707000  1
  H  H209  1  0.95611600  0.38004600  0.08875800  1
  H  H210  1  0.85669400  0.39460100  0.10438200  1
  H  H211  1  0.80542900  0.33087600  0.09722300  1
  H  H212  1  0.79724400  0.40434600  0.08168500  1
  H  H213  1  0.80212100  0.31033500  0.04893400  1
  H  H214  1  0.87184800  0.27023400  0.01840400  1
  H  H215  1  0.65189300  0.02634400  0.05735500  1
  H  H216  1  0.61836400  0.95639100  0.08903300  1
  H  H217  1  0.60374400  0.85694100  0.10467500  1
  H  H218  1  0.66816300  0.80618000  0.09792700  1
  H  H219  1  0.59529600  0.79718100  0.08203300  1
  H  H220  1  0.69008300  0.80248300  0.04971600  1
  H  H221  1  0.73056200  0.87215600  0.01927000  1
  H  H222  1  0.97391700  0.65151500  0.05719600  1
  H  H223  1  0.04373200  0.61859100  0.08903000  1
  H  H224  1  0.14314800  0.60479100  0.10485700  1
  H  H225  1  0.19297900  0.67016700  0.09846100  1
  H  H226  1  0.20349700  0.59775900  0.08238800  1
  H  H227  1  0.19740500  0.69265200  0.05025200  1
  H  H228  1  0.12781900  0.73249200  0.01967800  1
  H  H229  1  0.84709400  0.47383400  0.55692700  1
  H  H230  1  0.87969100  0.54369000  0.58878800  1
  H  H231  1  0.89338100  0.64305200  0.60462500  1
  H  H232  1  0.82881300  0.69352200  0.59776200  1
  H  H233  1  0.90193500  0.70307600  0.58209400  1
  H  H234  1  0.80781700  0.69754800  0.54948400  1
  H  H235  1  0.76836600  0.62794400  0.51881200  1
  H  H236  1  0.52615100  0.84680600  0.55707000  1
  H  H237  1  0.45611800  0.88004900  0.58875800  1
  H  H238  1  0.35669500  0.89460400  0.60438200  1
  H  H239  1  0.30543000  0.83087900  0.59722300  1
  H  H240  1  0.29724600  0.90434900  0.58168500  1
  H  H241  1  0.30212300  0.81033800  0.54893300  1
  H  H242  1  0.37185100  0.77023700  0.51840400  1
  H  H243  1  0.15189600  0.52634500  0.55735500  1
  H  H244  1  0.11836600  0.45639100  0.58903300  1
  H  H245  1  0.10374600  0.35694000  0.60467400  1
  H  H246  1  0.16816500  0.30618000  0.59792700  1
  H  H247  1  0.09529900  0.29718000  0.58203200  1
  H  H248  1  0.19008600  0.30248400  0.54971500  1
  H  H249  1  0.23056600  0.37215700  0.51926900  1
  H  H250  1  0.47392000  0.15151800  0.55719600  1
  H  H251  1  0.54373500  0.11859300  0.58903000  1
  H  H252  1  0.64315100  0.10479400  0.60485700  1
  H  H253  1  0.69298100  0.17017000  0.59846100  1
  H  H254  1  0.70350000  0.09776200  0.58238900  1
  H  H255  1  0.69740800  0.19265500  0.55025300  1
  H  H256  1  0.62782200  0.23249500  0.51967800  1
  C  C1  1  0.99929300  0.12183000  0.98890100  1
  C  C2  1  0.87848700  0.99963300  0.98990000  1
  C  C3  1  0.00079400  0.87874900  0.98986900  1
  C  C4  1  0.12156700  0.00094100  0.98887100  1
  C  C5  1  0.49929600  0.62183300  0.48890100  1
  C  C6  1  0.37849000  0.49963600  0.48990000  1
  C  C7  1  0.50079700  0.37875200  0.48986900  1
  C  C8  1  0.62157100  0.50094400  0.48887100  1
  C  C9  1  0.54165300  0.96677000  0.15346300  1
  C  C10  1  0.03429600  0.54179600  0.15349000  1
  C  C11  1  0.45597700  0.03327800  0.15350700  1
  C  C12  1  0.96746100  0.45637800  0.15348400  1
  C  C13  1  0.04165300  0.46676800  0.65346300  1
  C  C14  1  0.53429900  0.04179600  0.65349000  1
  C  C15  1  0.95598100  0.53328200  0.65350700  1
  C  C16  1  0.46746300  0.95637900  0.65348400  1
  C  C17  1  0.49882600  0.99986500  0.19137200  1
  C  C18  1  0.00085500  0.49910900  0.19137400  1
  C  C19  1  0.99882700  0.49986600  0.69137200  1
  C  C20  1  0.50085700  0.99910900  0.69137400  1
  C  C21  1  0.03094500  0.45572500  0.82994700  1
  C  C22  1  0.54485500  0.03061500  0.82998000  1
  C  C23  1  0.96872500  0.54456600  0.82998900  1
  C  C24  1  0.45579900  0.96870500  0.82996100  1
  C  C25  1  0.53095100  0.95572900  0.32994700  1
  C  C26  1  0.04485500  0.53061800  0.32998000  1
  C  C27  1  0.46872500  0.04456600  0.32998900  1
  C  C28  1  0.95580000  0.46870700  0.32996100  1
  C  C29  1  0.03380500  0.45620400  0.75450900  1
  C  C30  1  0.54440000  0.03390300  0.75454000  1
  C  C31  1  0.96439000  0.54348600  0.75455600  1
  C  C32  1  0.45685100  0.96482100  0.75452900  1
  C  C33  1  0.53380900  0.95620700  0.25450900  1
  C  C34  1  0.04439900  0.53390600  0.25454000  1
  C  C35  1  0.46438700  0.04348400  0.25455600  1
  C  C36  1  0.95685100  0.46482200  0.25452900  1
  C  C37  1  0.21202900  0.00191500  0.01564000  1
  C  C38  1  0.99728700  0.21229200  0.01566200  1
  C  C39  1  0.78755400  0.99783800  0.01641800  1
  C  C40  1  0.00157200  0.78781100  0.01639400  1
  C  C41  1  0.71203200  0.50191800  0.51564000  1
  C  C42  1  0.49729000  0.71229500  0.51566200  1
  C  C43  1  0.28755700  0.49784000  0.51641800  1
  C  C44  1  0.50157500  0.28781400  0.51639400  1
  C  C45  1  0.28206300  0.99940200  0.01670300  1
  C  C46  1  0.00054500  0.28229300  0.01672900  1
  C  C47  1  0.71751600  0.00076200  0.01728400  1
  C  C48  1  0.99940000  0.71774300  0.01725900  1
  C  C49  1  0.78206600  0.49940600  0.51670300  1
  C  C50  1  0.50054800  0.78229600  0.51672900  1
  C  C51  1  0.21752000  0.50076400  0.51728400  1
  C  C52  1  0.49940300  0.21774500  0.51725900  1
  C  C53  1  0.21611600  0.94422200  0.97679400  1
  C  C54  1  0.05688700  0.21622300  0.97724600  1
  C  C55  1  0.78408400  0.05667100  0.97781800  1
  C  C56  1  0.94466000  0.78421400  0.97736900  1
  C  C57  1  0.71611900  0.44422400  0.47679400  1
  C  C58  1  0.55689000  0.71622600  0.47724600  1
  C  C59  1  0.28408800  0.55667400  0.47781900  1
  C  C60  1  0.44466300  0.28421600  0.47736900  1
  C  C61  1  0.21509100  0.05894800  0.97676500  1
  C  C62  1  0.94213200  0.21552300  0.97641300  1
  C  C63  1  0.78525800  0.94192200  0.97731300  1
  C  C64  1  0.05935800  0.78567400  0.97766500  1
  C  C65  1  0.71509400  0.55895000  0.47676500  1
  C  C66  1  0.44213500  0.71552600  0.47641300  1
  C  C67  1  0.28526100  0.44192500  0.47731300  1
  C  C68  1  0.55936100  0.28567700  0.47766500  1
  C  C69  1  0.19079200  0.00145600  0.98941300  1
  C  C70  1  0.99896300  0.19105700  0.98944800  1
  C  C71  1  0.80925600  0.99909000  0.99025900  1
  C  C72  1  0.00154600  0.80952100  0.99022600  1
  C  C73  1  0.69079500  0.50145800  0.48941400  1
  C  C74  1  0.49896600  0.69106000  0.48944800  1
  C  C75  1  0.30925900  0.49909300  0.49026000  1
  C  C76  1  0.50154900  0.30952400  0.49022600  1
  C  C77  1  0.30890800  0.00214600  0.99108700  1
  C  C78  1  0.99861600  0.30918500  0.99110600  1
  C  C79  1  0.69111000  0.99826500  0.99159700  1
  C  C80  1  0.00268200  0.69138700  0.99157900  1
  C  C81  1  0.80891100  0.50214800  0.49108700  1
  C  C82  1  0.49861900  0.80918800  0.49110600  1
  C  C83  1  0.19111300  0.49826700  0.49159700  1
  C  C84  1  0.50268500  0.19139000  0.49157900  1
  C  C85  1  0.28653400  0.94407400  0.97799900  1
  C  C86  1  0.05703100  0.28665900  0.97830200  1
  C  C87  1  0.71363000  0.05649400  0.97866400  1
  C  C88  1  0.94480700  0.71378000  0.97836700  1
  C  C89  1  0.78653700  0.44407700  0.47799900  1
  C  C90  1  0.55703500  0.78666200  0.47830200  1
  C  C91  1  0.21363400  0.55649700  0.47866400  1
  C  C92  1  0.44481000  0.21378300  0.47836700  1
  C  C93  1  0.28544500  0.05749000  0.97650800  1
  C  C94  1  0.94369200  0.28587000  0.97624900  1
  C  C95  1  0.71490700  0.94312400  0.97697400  1
  C  C96  1  0.05824200  0.71531200  0.97723600  1
  C  C97  1  0.78544800  0.55749200  0.47650800  1
  C  C98  1  0.44369500  0.78587200  0.47624900  1
  C  C99  1  0.21491000  0.44312700  0.47697400  1
  C  C100  1  0.55824500  0.21531400  0.47723600  1
  C  C101  1  0.51170200  0.05489600  0.07853000  1
  C  C102  1  0.94624800  0.51209100  0.07852200  1
  C  C103  1  0.48686400  0.94676100  0.07830900  1
  C  C104  1  0.05435200  0.48711900  0.07831400  1
  C  C105  1  0.01170600  0.55489800  0.57853000  1
  C  C106  1  0.44625100  0.01209400  0.57852200  1
  C  C107  1  0.98686600  0.44676300  0.57830900  1
  C  C108  1  0.55435500  0.98712100  0.57831400  1
  C  C109  1  0.49941800  0.00096900  0.06584800  1
  C  C110  1  0.00017100  0.49973000  0.06584600  1
  C  C111  1  0.99942200  0.50097200  0.56584800  1
  C  C112  1  0.50017400  0.99973300  0.56584600  1
  C  C113  1  0.49897200  0.00039700  0.11585500  1
  C  C114  1  0.00066600  0.49925900  0.11585500  1
  C  C115  1  0.99897400  0.50039900  0.61585500  1
  C  C116  1  0.50066800  0.99926000  0.61585500  1
  C  C117  1  0.94549400  0.49540900  0.88064000  1
  C  C118  1  0.50529000  0.94434600  0.88044500  1
  C  C119  1  0.05571500  0.50552800  0.88035900  1
  C  C120  1  0.49544500  0.05459400  0.88055800  1
  C  C121  1  0.44549700  0.99540900  0.38064000  1
  C  C122  1  0.00529300  0.44434900  0.38044500  1
  C  C123  1  0.55571800  0.00553300  0.38035900  1
  C  C124  1  0.99544600  0.55459700  0.38055800  1
  C  C125  1  0.94582400  0.49560700  0.90558800  1
  C  C126  1  0.50520300  0.94409400  0.90538900  1
  C  C127  1  0.05621300  0.50550600  0.90530500  1
  C  C128  1  0.49556500  0.05451000  0.90550800  1
  C  C129  1  0.44582700  0.99560700  0.40558800  1
  C  C130  1  0.00520600  0.44409700  0.40538900  1
  C  C131  1  0.55621600  0.00551100  0.40530500  1
  C  C132  1  0.99556700  0.55451300  0.40550800  1
  C  C133  1  0.00123100  0.50058200  0.91807000  1
  C  C134  1  0.50037900  0.99921200  0.91807200  1
  C  C135  1  0.50123400  0.00058500  0.41807000  1
  C  C136  1  0.00038200  0.49921500  0.41807200  1
  C  C137  1  0.00040000  0.50040300  0.86792400  1
  C  C138  1  0.50034000  0.99954700  0.86792600  1
  C  C139  1  0.50040300  0.00040600  0.36792400  1
  C  C140  1  0.00034200  0.49955000  0.36792600  1
  C  C141  1  0.51137600  0.05455100  0.10346000  1
  C  C142  1  0.94655500  0.51175700  0.10344800  1
  C  C143  1  0.48675100  0.94653300  0.10324000  1
  C  C144  1  0.05454100  0.48699000  0.10324900  1
  C  C145  1  0.01138000  0.55455300  0.60346000  1
  C  C146  1  0.44655800  0.01175900  0.60344800  1
  C  C147  1  0.98675300  0.44653500  0.60324000  1
  C  C148  1  0.55454400  0.98699200  0.60324900  1
  C  C149  1  0.99919900  0.49988200  0.76702700  1
  C  C150  1  0.50056700  0.99942400  0.76702900  1
  C  C151  1  0.49920000  0.99988300  0.26702700  1
  C  C152  1  0.00056700  0.49942600  0.26702800  1
  C  C153  1  0.49965600  0.00128500  0.03938900  1
  C  C154  1  0.99980800  0.49995400  0.03938800  1
  C  C155  1  0.99965900  0.50128700  0.53938800  1
  C  C156  1  0.49981200  0.99995700  0.53938800  1
  C  C157  1  0.37834700  0.00218300  0.99187300  1
  C  C158  1  0.99864200  0.37862600  0.99188900  1
  C  C159  1  0.62165600  0.99813300  0.99221000  1
  C  C160  1  0.00282800  0.62193500  0.99219300  1
  C  C161  1  0.87835100  0.50218500  0.49187300  1
  C  C162  1  0.49864500  0.87862900  0.49188900  1
  C  C163  1  0.12166000  0.49813600  0.49221000  1
  C  C164  1  0.50283200  0.12193800  0.49219300  1
  C  C165  1  0.93606200  0.59001800  0.79263500  1
  C  C166  1  0.41016100  0.93652600  0.79258100  1
  C  C167  1  0.06274900  0.40989000  0.79255600  1
  C  C168  1  0.59074500  0.06255900  0.79261700  1
  C  C169  1  0.43605700  0.09001500  0.29263500  1
  C  C170  1  0.91016200  0.43652600  0.29258100  1
  C  C171  1  0.56275700  0.90989600  0.29255600  1
  C  C172  1  0.09074400  0.56256300  0.29261600  1
  C  C173  1  0.50031000  0.99896300  0.94460400  1
  C  C174  1  0.00169200  0.50055800  0.94460100  1
  C  C175  1  0.00031400  0.49896600  0.44460400  1
  C  C176  1  0.50169500  0.00056100  0.44460100  1
  C  C177  1  0.96772900  0.54466200  0.80495600  1
  C  C178  1  0.45564700  0.96793300  0.80492800  1
  C  C179  1  0.03136700  0.45537400  0.80491400  1
  C  C180  1  0.54516300  0.03124900  0.80494600  1
  C  C181  1  0.46772800  0.04466200  0.30495600  1
  C  C182  1  0.95564800  0.46793400  0.30492800  1
  C  C183  1  0.53137200  0.95537800  0.30491400  1
  C  C184  1  0.04516200  0.53125200  0.30494600  1
  C  C185  1  0.99942300  0.49996800  0.79220100  1
  C  C186  1  0.50045600  0.99954000  0.79220300  1
  C  C187  1  0.49942500  0.99996900  0.29220100  1
  C  C188  1  0.00045600  0.49954200  0.29220300  1
  C  C189  1  0.53703000  0.95921400  0.22921500  1
  C  C190  1  0.04149000  0.53716000  0.22924300  1
  C  C191  1  0.46086800  0.04041200  0.22926800  1
  C  C192  1  0.95997800  0.46133000  0.22924200  1
  C  C193  1  0.03702700  0.45921100  0.72921500  1
  C  C194  1  0.54149200  0.03715800  0.72924400  1
  C  C195  1  0.96087100  0.54041500  0.72926800  1
  C  C196  1  0.45997800  0.96133000  0.72924200  1
  C  C197  1  0.49890200  0.99982400  0.21665000  1
  C  C198  1  0.00077900  0.49919500  0.21665100  1
  C  C199  1  0.99890200  0.49982400  0.71665000  1
  C  C200  1  0.50078000  0.99919400  0.71665200  1
  C  C201  1  0.93433100  0.58960300  0.76781600  1
  C  C202  1  0.41058400  0.93491300  0.76776100  1
  C  C203  1  0.06403000  0.41012900  0.76773400  1
  C  C204  1  0.59053900  0.06394700  0.76779500  1
  C  C205  1  0.43432500  0.08960000  0.26781600  1
  C  C206  1  0.91058500  0.43491400  0.26776100  1
  C  C207  1  0.56403800  0.91013500  0.26773400  1
  C  C208  1  0.09053700  0.56395000  0.26779400  1
  C  C209  1  0.57766900  0.92221600  0.21614200  1
  C  C210  1  0.07871400  0.57764300  0.21619400  1
  C  C211  1  0.42006200  0.07736000  0.21625400  1
  C  C212  1  0.92289300  0.42070200  0.21620000  1
  C  C213  1  0.07766300  0.42221000  0.71614200  1
  C  C214  1  0.57871700  0.07764000  0.71619500  1
  C  C215  1  0.92006800  0.57736700  0.71625400  1
  C  C216  1  0.42289300  0.92070200  0.71620000  1
  C  C217  1  0.57879300  0.92274300  0.19135400  1
  C  C218  1  0.07830900  0.57875400  0.19140500  1
  C  C219  1  0.41879200  0.07691600  0.19146600  1
  C  C220  1  0.92344200  0.41942900  0.19141200  1
  C  C221  1  0.07878800  0.42273700  0.69135400  1
  C  C222  1  0.57831200  0.07875200  0.69140600  1
  C  C223  1  0.91879900  0.57692300  0.69146500  1
  C  C224  1  0.42344300  0.91943100  0.69141200  1
  C  C225  1  0.53959200  0.96219300  0.17860600  1
  C  C226  1  0.03875500  0.53971200  0.17863400  1
  C  C227  1  0.45800800  0.03760200  0.17865900  1
  C  C228  1  0.96300700  0.45845100  0.17863300  1
  C  C229  1  0.03959000  0.46219100  0.67860600  1
  C  C230  1  0.53875800  0.03971100  0.67863400  1
  C  C231  1  0.95801300  0.53760600  0.67865900  1
  C  C232  1  0.46300900  0.95845100  0.67863300  1
  C  C233  1  0.61908300  0.87668700  0.17982700  1
  C  C234  1  0.68269500  0.88184900  0.18178900  1
  C  C235  1  0.72069500  0.83796400  0.17130000  1
  C  C236  1  0.69510900  0.78835400  0.15901800  1
  C  C237  1  0.73560900  0.74049700  0.14771200  1
  C  C238  1  0.63150600  0.78267200  0.15737600  1
  C  C239  1  0.59352900  0.82648600  0.16790000  1
  C  C240  1  0.12464200  0.61878100  0.17990700  1
  C  C241  1  0.11985200  0.68242300  0.18187100  1
  C  C242  1  0.16402500  0.72016600  0.17142500  1
  C  C243  1  0.21355600  0.69429100  0.15918700  1
  C  C244  1  0.26174800  0.73450700  0.14794400  1
  C  C245  1  0.21885500  0.63065600  0.15753700  1
  C  C246  1  0.17474600  0.59293500  0.16801500  1
  C  C247  1  0.37833100  0.12291700  0.18000100  1
  C  C248  1  0.31473700  0.11740400  0.18189900  1
  C  C249  1  0.27657100  0.16116800  0.17142500  1
  C  C250  1  0.30197200  0.21099900  0.15922000  1
  C  C251  1  0.26129300  0.25869100  0.14790600  1
  C  C252  1  0.36555300  0.21704300  0.15765300  1
  C  C253  1  0.40369600  0.17335600  0.16816600  1
  C  C254  1  0.87730200  0.37919300  0.17991300  1
  C  C255  1  0.88247800  0.31557300  0.18182400  1
  C  C256  1  0.83860400  0.27762000  0.17130200  1
  C  C257  1  0.78900100  0.30326400  0.15903400  1
  C  C258  1  0.74120900  0.26281900  0.14765800  1
  C  C259  1  0.78328400  0.36687500  0.15745600  1
  C  C260  1  0.82707800  0.40480400  0.16801900  1
  C  C261  1  0.11907300  0.37667700  0.67982700  1
  C  C262  1  0.18268600  0.38183200  0.68178900  1
  C  C263  1  0.22068200  0.33794400  0.67130000  1
  C  C264  1  0.19509100  0.28833800  0.65901800  1
  C  C265  1  0.23558600  0.24047600  0.64771200  1
  C  C266  1  0.13148800  0.28266200  0.65737500  1
  C  C267  1  0.09351400  0.32647900  0.66789900  1
  C  C268  1  0.62464600  0.11877900  0.67990800  1
  C  C269  1  0.61985800  0.18242100  0.68187200  1
  C  C270  1  0.66403300  0.22016300  0.67142600  1
  C  C271  1  0.71356300  0.19428600  0.65918800  1
  C  C272  1  0.76175600  0.23450100  0.64794500  1
  C  C273  1  0.71886000  0.13065100  0.65753800  1
  C  C274  1  0.67475000  0.09293200  0.66801500  1
  C  C275  1  0.87834300  0.62292900  0.68000100  1
  C  C276  1  0.81474900  0.61742300  0.68189900  1
  C  C277  1  0.77658700  0.66119000  0.67142400  1
  C  C278  1  0.80199300  0.71101900  0.65922000  1
  C  C279  1  0.76132000  0.75871500  0.64790600  1
  C  C280  1  0.86557600  0.71705700  0.65765300  1
  C  C281  1  0.90371300  0.67336500  0.66816600  1
  C  C282  1  0.37730200  0.87919500  0.67991200  1
  C  C283  1  0.38247700  0.81557500  0.68182400  1
  C  C284  1  0.33860200  0.77762400  0.67130200  1
  C  C285  1  0.28899900  0.80326900  0.65903300  1
  C  C286  1  0.24120600  0.76282400  0.64765700  1
  C  C287  1  0.28328400  0.86687900  0.65745600  1
  C  C288  1  0.32707900  0.90480700  0.66801800  1
  C  C289  1  0.30766300  0.04543500  0.03463800  1
  C  C290  1  0.33860900  0.02294800  0.05476200  1
  C  C291  1  0.35752300  0.06256600  0.07289300  1
  C  C292  1  0.34791500  0.12550900  0.07079500  1
  C  C293  1  0.36935900  0.16883300  0.09003700  1
  C  C294  1  0.31704900  0.14837600  0.05091100  1
  C  C295  1  0.29596300  0.10864700  0.03318400  1
  C  C296  1  0.95449100  0.30838700  0.03453600  1
  C  C297  1  0.97697400  0.33893800  0.05475200  1
  C  C298  1  0.93725700  0.35820900  0.07278900  1
  C  C299  1  0.87424600  0.34937200  0.07050300  1
  C  C300  1  0.83084900  0.37117100  0.08966100  1
  C  C301  1  0.85137100  0.31895200  0.05051200  1
  C  C302  1  0.89117400  0.29750100  0.03287200  1
  C  C303  1  0.69132500  0.95471900  0.03507900  1
  C  C304  1  0.66013400  0.97719800  0.05514600  1
  C  C305  1  0.64068200  0.93752300  0.07317000  1
  C  C306  1  0.64996000  0.87454500  0.07100600  1
  C  C307  1  0.62790200  0.83116100  0.09012100  1
  C  C308  1  0.68107900  0.85168600  0.05118200  1
  C  C309  1  0.70272700  0.89146000  0.03357400  1
  C  C310  1  0.04543900  0.69204200  0.03517400  1
  C  C311  1  0.02299400  0.66040100  0.05513900  1
  C  C312  1  0.06259200  0.64128000  0.07324700  1
  C  C313  1  0.12548600  0.65137100  0.07127200  1
  C  C314  1  0.16882400  0.62965500  0.09046000  1
  C  C315  1  0.14829700  0.68299800  0.05156700  1
  C  C316  1  0.10857500  0.70429300  0.03387900  1
  C  C317  1  0.80766700  0.54543900  0.53463700  1
  C  C318  1  0.83861300  0.52295200  0.55476100  1
  C  C319  1  0.85752700  0.56257100  0.57289300  1
  C  C320  1  0.84791900  0.62551300  0.57079400  1
  C  C321  1  0.86936200  0.66883800  0.59003700  1
  C  C322  1  0.81705300  0.64838000  0.55091100  1
  C  C323  1  0.79596700  0.60865000  0.53318300  1
  C  C324  1  0.45449300  0.80839000  0.53453600  1
  C  C325  1  0.47697600  0.83894000  0.55475200  1
  C  C326  1  0.43725800  0.85821200  0.57278900  1
  C  C327  1  0.37424700  0.84937500  0.57050200  1
  C  C328  1  0.33085100  0.87117400  0.58966000  1
  C  C329  1  0.35137300  0.81895500  0.55051100  1
  C  C330  1  0.39117600  0.79750400  0.53287200  1
  C  C331  1  0.19132800  0.45472100  0.53507900  1
  C  C332  1  0.16013700  0.47719900  0.55514500  1
  C  C333  1  0.14068500  0.43752400  0.57316900  1
  C  C334  1  0.14996300  0.37454500  0.57100600  1
  C  C335  1  0.12790500  0.33116100  0.59012000  1
  C  C336  1  0.18108200  0.35168800  0.55118100  1
  C  C337  1  0.20273000  0.39146200  0.53357300  1
  C  C338  1  0.54544200  0.19204500  0.53517500  1
  C  C339  1  0.52299700  0.16040300  0.55513900  1
  C  C340  1  0.56259500  0.14128200  0.57324700  1
  C  C341  1  0.62548900  0.15137300  0.57127200  1
  C  C342  1  0.66882600  0.12965800  0.59046100  1
  C  C343  1  0.64829900  0.18300100  0.55156700  1
  C  C344  1  0.60857800  0.20429600  0.53388000  1
  N  N1  1  0.49883700  0.00010400  0.14161500  1
  N  N2  1  0.00088700  0.49908700  0.14161500  1
  N  N3  1  0.99883900  0.50010600  0.64161500  1
  N  N4  1  0.50088900  0.99908800  0.64161500  1
  N  N5  1  0.99999700  0.50022100  0.84209700  1
  N  N6  1  0.50030000  0.99967600  0.84209900  1
  N  N7  1  0.50000000  0.00022300  0.34209700  1
  N  N8  1  0.00030100  0.49967900  0.34209900  1
  O  O1  1  0.99800000  0.09254600  0.00968000  1
  O  O2  1  0.90741500  0.99828800  0.01074400  1
  O  O3  1  0.99927800  0.90765200  0.01071900  1
  O  O4  1  0.09230600  0.99952700  0.00965400  1
  O  O5  1  0.49800300  0.59254900  0.50968000  1
  O  O6  1  0.40741800  0.49829100  0.51074400  1
  O  O7  1  0.49928100  0.40765500  0.51071900  1
  O  O8  1  0.59230900  0.49953000  0.50965400  1
  O  O9  1  0.00098700  0.09313500  0.96793900  1
  O  O10  1  0.90753400  0.00124900  0.96899900  1
  O  O11  1  0.00191200  0.90781900  0.96896800  1
  O  O12  1  0.09284700  0.00213300  0.96791000  1
  O  O13  1  0.50099000  0.59313800  0.46793900  1
  O  O14  1  0.40753700  0.50125100  0.46899900  1
  O  O15  1  0.50191500  0.40782200  0.46896800  1
  O  O16  1  0.59285000  0.50213600  0.46791000  1
  O  O17  1  0.58718000  0.94025900  0.14048900  1
  O  O18  1  0.06096600  0.58727700  0.14054400  1
  O  O19  1  0.41051000  0.05996900  0.14055700  1
  O  O20  1  0.94062300  0.41102800  0.14051400  1
  O  O21  1  0.08717800  0.44025400  0.64048900  1
  O  O22  1  0.56097000  0.08727700  0.64054400  1
  O  O23  1  0.91051600  0.55997700  0.64055700  1
  O  O24  1  0.44062400  0.91102900  0.64051400  1
  O  O25  1  0.06050200  0.41079900  0.84226900  1
  O  O26  1  0.58991200  0.05989200  0.84233000  1
  O  O27  1  0.93945400  0.58961600  0.84234500  1
  O  O28  1  0.41068600  0.93945800  0.84229100  1
  O  O29  1  0.56051000  0.91080500  0.34226900  1
  O  O30  1  0.08991300  0.55989600  0.34233000  1
  O  O31  1  0.43945100  0.08961500  0.34234500  1
  O  O32  1  0.91068800  0.43945900  0.34229200  1
  O  O33  1  0.49883900  0.05494000  0.02820000  1
  O  O34  1  0.94610600  0.49915300  0.02824200  1
  O  O35  1  0.50060100  0.94787600  0.02799800  1
  O  O36  1  0.05316800  0.50088100  0.02795300  1
  O  O37  1  0.99884200  0.55494300  0.52820000  1
  O  O38  1  0.44610900  0.99915500  0.52824200  1
  O  O39  1  0.00060400  0.44787800  0.52799800  1
  O  O40  1  0.55317100  0.00088300  0.52795400  1
  O  O41  1  0.40757600  0.05558600  0.99258400  1
  O  O42  1  0.94525400  0.40787900  0.99264400  1
  O  O43  1  0.59241700  0.94472700  0.99162700  1
  O  O44  1  0.05621800  0.59267600  0.99155900  1
  O  O45  1  0.90758000  0.55558900  0.49258400  1
  O  O46  1  0.44525700  0.90788200  0.49264400  1
  O  O47  1  0.09242000  0.44473000  0.49162700  1
  O  O48  1  0.55622100  0.09267900  0.49156000  1
  O  O49  1  0.40734800  0.94863200  0.99131600  1
  O  O50  1  0.05220000  0.40760500  0.99126700  1
  O  O51  1  0.59266000  0.05168400  0.99274500  1
  O  O52  1  0.94926700  0.59295900  0.99278600  1
  O  O53  1  0.90735100  0.44863400  0.49131600  1
  O  O54  1  0.55220300  0.90760700  0.49126700  1
  O  O55  1  0.09266300  0.55168700  0.49274500  1
  O  O56  1  0.44927100  0.09296200  0.49278600  1
  O  O57  1  0.49902900  0.05233700  0.95603600  1
  O  O58  1  0.94839100  0.49930100  0.95608000  1
  O  O59  1  0.50151200  0.94536000  0.95583700  1
  O  O60  1  0.05536500  0.50175100  0.95578800  1
  O  O61  1  0.99903200  0.55234000  0.45603600  1
  O  O62  1  0.44839400  0.99930400  0.45608000  1
  O  O63  1  0.00151500  0.44536300  0.45583700  1
  O  O64  1  0.55536800  0.00175400  0.45578800  1
