# generated using pymatgen
data_Cu3H36C76(O3F2)4
_symmetry_space_group_name_H-M   'P 1'
_cell_length_a   21.50692000
_cell_length_b   21.50691900
_cell_length_c   31.86613800
_cell_angle_alpha   90.00000000
_cell_angle_beta   90.00000000
_cell_angle_gamma   90.00000000
_symmetry_Int_Tables_number   1
_chemical_formula_structural   Cu3H36C76(O3F2)4
_chemical_formula_sum   'Cu12 H144 C304 O48 F32'
_cell_volume   14739.60521914
_cell_formula_units_Z   4
loop_
 _symmetry_equiv_pos_site_id
 _symmetry_equiv_pos_as_xyz
  1  'x, y, z'
loop_
 _atom_site_type_symbol
 _atom_site_label
 _atom_site_symmetry_multiplicity
 _atom_site_fract_x
 _atom_site_fract_y
 _atom_site_fract_z
 _atom_site_occupancy
  Cu  Cu1  1  0.99934000  0.56052500  0.00196900  1
  Cu  Cu2  1  0.50002100  0.50001100  0.03973300  1
  Cu  Cu3  1  0.99998500  0.99998200  0.45647500  1
  Cu  Cu4  1  0.99999200  0.99998200  0.53861700  1
  Cu  Cu5  1  0.43945900  0.99932300  0.00197900  1
  Cu  Cu6  1  0.00071500  0.43951000  0.00196900  1
  Cu  Cu7  1  0.56047400  0.00069800  0.00195900  1
  Cu  Cu8  1  0.49920100  0.06048800  0.50194300  1
  Cu  Cu9  1  0.93951200  0.49919600  0.50193100  1
  Cu  Cu10  1  0.50077500  0.93947600  0.50192800  1
  Cu  Cu11  1  0.06052400  0.50077000  0.50194000  1
  Cu  Cu12  1  0.50003100  0.50001100  0.95758900  1
  H  H1  1  0.19176200  0.44637900  0.94620800  1
  H  H2  1  0.05261400  0.69130800  0.44549700  1
  H  H3  1  0.35869700  0.63424600  0.02255900  1
  H  H4  1  0.51604900  0.72652600  0.11319300  1
  H  H5  1  0.57415800  0.67510400  0.16957500  1
  H  H6  1  0.69274200  0.59053800  0.07901200  1
  H  H7  1  0.63422700  0.64135200  0.02259000  1
  H  H8  1  0.72654000  0.48402200  0.11320200  1
  H  H9  1  0.67510200  0.42595500  0.16959800  1
  H  H10  1  0.59052000  0.30733700  0.07906200  1
  H  H11  1  0.64135300  0.36580700  0.02262700  1
  H  H12  1  0.48397200  0.27350500  0.11318700  1
  H  H13  1  0.30866400  0.05259100  0.44548900  1
  H  H14  1  0.42589600  0.32495100  0.16957500  1
  H  H15  1  0.30730500  0.40953500  0.07902400  1
  H  H16  1  0.36578800  0.35869600  0.02259600  1
  H  H17  1  0.82056900  0.02356000  0.39474800  1
  H  H18  1  0.86846200  0.96730300  0.33584200  1
  H  H19  1  0.85022000  0.79748000  0.40355000  1
  H  H20  1  0.80178100  0.85385800  0.46199800  1
  H  H21  1  0.97642000  0.82059700  0.39475400  1
  H  H22  1  0.03267200  0.86849500  0.33584700  1
  H  H23  1  0.20250800  0.85020000  0.40353400  1
  H  H24  1  0.94741700  0.30866400  0.44548800  1
  H  H25  1  0.14613500  0.80175800  0.46198300  1
  H  H26  1  0.17938700  0.97642300  0.39474100  1
  H  H27  1  0.13149300  0.03268800  0.33583800  1
  H  H28  1  0.14976300  0.20250600  0.40354800  1
  H  H29  1  0.19819800  0.14611800  0.46199400  1
  H  H30  1  0.02355800  0.17941500  0.39473500  1
  H  H31  1  0.96728800  0.13152600  0.33583200  1
  H  H32  1  0.79748300  0.14974300  0.40356300  1
  H  H33  1  0.85387500  0.19817500  0.46200900  1
  H  H34  1  0.77483700  0.01606400  0.61238300  1
  H  H35  1  0.69316300  0.05902800  0.55573800  1
  H  H36  1  0.82736900  0.07358000  0.66858000  1
  H  H37  1  0.91031400  0.19298800  0.57782600  1
  H  H38  1  0.85851300  0.13497800  0.52157900  1
  H  H39  1  0.01609300  0.22513900  0.61237300  1
  H  H40  1  0.07360600  0.17260500  0.66857000  1
  H  H41  1  0.19300500  0.08964600  0.57781700  1
  H  H42  1  0.13499800  0.14144900  0.52156900  1
  H  H43  1  0.22515200  0.98385300  0.61236600  1
  H  H44  1  0.17263100  0.92631400  0.66855500  1
  H  H45  1  0.08967300  0.80694200  0.57778600  1
  H  H46  1  0.05906500  0.30680600  0.55572400  1
  H  H47  1  0.14146300  0.86497600  0.52154600  1
  H  H48  1  0.98388300  0.77482400  0.61237600  1
  H  H49  1  0.92634100  0.82734300  0.66856500  1
  H  H50  1  0.80695900  0.91028700  0.57779600  1
  H  H51  1  0.86499500  0.85849800  0.52155600  1
  H  H52  1  0.30681800  0.94091700  0.55571200  1
  H  H53  1  0.94095400  0.69315200  0.55572700  1
  H  H54  1  0.13775900  0.49537500  0.18344700  1
  H  H55  1  0.20757600  0.42724000  0.14345200  1
  H  H56  1  0.10635300  0.26890800  0.18557000  1
  H  H57  1  0.55358300  0.19173900  0.94619500  1
  H  H58  1  0.03548700  0.33695500  0.22485200  1
  H  H59  1  0.50465000  0.13776100  0.18346000  1
  H  H60  1  0.57278800  0.20759200  0.14347700  1
  H  H61  1  0.73111700  0.10634800  0.18557900  1
  H  H62  1  0.66306800  0.03547300  0.22485100  1
  H  H63  1  0.86234600  0.50469200  0.18345000  1
  H  H64  1  0.79255400  0.57285600  0.14345700  1
  H  H65  1  0.89384600  0.73114700  0.18557000  1
  H  H66  1  0.96468300  0.66307100  0.22485300  1
  H  H67  1  0.49533200  0.86234800  0.18343700  1
  H  H68  1  0.80829400  0.55359500  0.94619900  1
  H  H69  1  0.42717100  0.79256900  0.14343200  1
  H  H70  1  0.26887700  0.89384400  0.18556200  1
  H  H71  1  0.33695200  0.96467100  0.22485300  1
  H  H72  1  0.13875900  0.50735600  0.81950900  1
  H  H73  1  0.20905900  0.57730200  0.85778000  1
  H  H74  1  0.10295400  0.73316600  0.81681500  1
  H  H75  1  0.03212700  0.66334700  0.77896300  1
  H  H76  1  0.50725200  0.86120100  0.81952100  1
  H  H77  1  0.57718800  0.79092400  0.85782100  1
  H  H78  1  0.73305700  0.89704900  0.81688800  1
  H  H79  1  0.44636700  0.80827000  0.94621100  1
  H  H80  1  0.66324800  0.96785100  0.77900600  1
  H  H81  1  0.86122400  0.49267100  0.81951100  1
  H  H82  1  0.79093900  0.42273200  0.85780100  1
  H  H83  1  0.89707500  0.26686700  0.81687300  1
  H  H84  1  0.96788500  0.33668000  0.77900200  1
  H  H85  1  0.49256500  0.13873500  0.81949900  1
  H  H86  1  0.42261500  0.20904300  0.85776000  1
  H  H87  1  0.26675600  0.10292500  0.81680000  1
  H  H88  1  0.33658000  0.03209100  0.77895900  1
  H  H89  1  0.53593500  0.83701100  0.72486200  1
  H  H90  1  0.19276400  0.55887900  0.05604800  1
  H  H91  1  0.60711000  0.76920500  0.68564600  1
  H  H92  1  0.70772700  0.92790300  0.64348100  1
  H  H93  1  0.63761900  0.99579100  0.68342600  1
  H  H94  1  0.16293300  0.53600400  0.72484200  1
  H  H95  1  0.23073500  0.60714900  0.68559800  1
  H  H96  1  0.07203400  0.70774300  0.64341500  1
  H  H97  1  0.00414900  0.63766700  0.68338900  1
  H  H98  1  0.46391800  0.16289400  0.72483000  1
  H  H99  1  0.39276400  0.23068600  0.68558600  1
  H  H100  1  0.29217500  0.07197400  0.64341700  1
  H  H101  1  0.55881700  0.80728200  0.05607400  1
  H  H102  1  0.36226200  0.00409800  0.68339000  1
  H  H103  1  0.83705000  0.46399000  0.72485000  1
  H  H104  1  0.76925100  0.39280800  0.68563400  1
  H  H105  1  0.92795800  0.29219300  0.64348300  1
  H  H106  1  0.99584000  0.36231000  0.68342800  1
  H  H107  1  0.53243100  0.16319900  0.27917700  1
  H  H108  1  0.60309100  0.23277700  0.31737600  1
  H  H109  1  0.70907500  0.07665900  0.35804700  1
  H  H110  1  0.63890800  0.00695400  0.31945800  1
  H  H111  1  0.16321200  0.46758400  0.27917000  1
  H  H112  1  0.80729200  0.44120500  0.05609000  1
  H  H113  1  0.23278900  0.39692400  0.31737000  1
  H  H114  1  0.07667000  0.29094800  0.35804600  1
  H  H115  1  0.00696600  0.36111400  0.31945600  1
  H  H116  1  0.46758700  0.83689000  0.27915100  1
  H  H117  1  0.39693700  0.76729900  0.31734800  1
  H  H118  1  0.29095900  0.92340300  0.35805000  1
  H  H119  1  0.36111700  0.99312100  0.31946400  1
  H  H120  1  0.83690300  0.53242600  0.27915800  1
  H  H121  1  0.76731100  0.60307600  0.31735400  1
  H  H122  1  0.92341200  0.70906200  0.35805100  1
  H  H123  1  0.44114300  0.19275400  0.05606400  1
  H  H124  1  0.99313200  0.63890400  0.31946500  1
  H  H125  1  0.32193100  0.52168600  0.89574800  1
  H  H126  1  0.36973300  0.46454800  0.83719600  1
  H  H127  1  0.34989800  0.29546400  0.90554200  1
  H  H128  1  0.30144400  0.35270800  0.96360800  1
  H  H129  1  0.47830100  0.32181000  0.89573000  1
  H  H130  1  0.53541300  0.36962300  0.83717000  1
  H  H131  1  0.70449400  0.34998300  0.90554600  1
  H  H132  1  0.64727500  0.30152000  0.96361900  1
  H  H133  1  0.67825800  0.47824600  0.89574100  1
  H  H134  1  0.69130800  0.94739400  0.44549600  1
  H  H135  1  0.63042000  0.53530500  0.83716700  1
  H  H136  1  0.64999100  0.70443100  0.90549900  1
  H  H137  1  0.69848300  0.64726500  0.96358500  1
  H  H138  1  0.52174200  0.67813900  0.89575800  1
  H  H139  1  0.46466000  0.63031300  0.83719200  1
  H  H140  1  0.29552900  0.65007400  0.90549400  1
  H  H141  1  0.35271800  0.69855700  0.96357300  1
  H  H142  1  0.27351900  0.51609800  0.11317800  1
  H  H143  1  0.32495000  0.57421600  0.16955300  1
  H  H144  1  0.40951800  0.69277300  0.07897400  1
  C  C1  1  0.31389000  0.50714200  0.99841100  1
  C  C2  1  0.49862000  0.11748700  0.00197800  1
  C  C3  1  0.47500300  0.71931800  0.96791500  1
  C  C4  1  0.28173400  0.53653900  0.03068100  1
  C  C5  1  0.53651100  0.71830900  0.03069800  1
  C  C6  1  0.71832100  0.46351800  0.03071200  1
  C  C7  1  0.46349100  0.28172200  0.03069600  1
  C  C8  1  0.78042700  0.97600600  0.46691100  1
  C  C9  1  0.02398400  0.78042400  0.46690700  1
  C  C10  1  0.21954600  0.02396800  0.46690100  1
  C  C11  1  0.97602200  0.21954400  0.46690500  1
  C  C12  1  0.78192800  0.03705100  0.52988400  1
  C  C13  1  0.88255000  0.49867000  0.00199500  1
  C  C14  1  0.03707500  0.21804200  0.52987400  1
  C  C15  1  0.21805100  0.96290000  0.52986400  1
  C  C16  1  0.96292400  0.78191800  0.52987400  1
  C  C17  1  0.08210900  0.42050400  0.20667000  1
  C  C18  1  0.13057800  0.44563400  0.18382400  1
  C  C19  1  0.16994300  0.40742100  0.16149000  1
  C  C20  1  0.16134000  0.34394200  0.16218000  1
  C  C21  1  0.11316600  0.31869200  0.18507900  1
  C  C22  1  0.07349600  0.35689800  0.20720900  1
  C  C23  1  0.57952100  0.08210300  0.20667500  1
  C  C24  1  0.50131500  0.88253300  0.00199600  1
  C  C25  1  0.55439100  0.13057800  0.18383600  1
  C  C26  1  0.59260500  0.16995100  0.16150800  1
  C  C27  1  0.65608400  0.16134500  0.16219700  1
  C  C28  1  0.68133300  0.11316300  0.18508800  1
  C  C29  1  0.64312600  0.07348700  0.20721300  1
  C  C30  1  0.91802700  0.57954200  0.20667200  1
  C  C31  1  0.86954800  0.55443100  0.18382700  1
  C  C32  1  0.83019700  0.59266000  0.16149300  1
  C  C33  1  0.83882700  0.65613500  0.16218200  1
  C  C34  1  0.88701200  0.68136600  0.18508000  1
  C  C35  1  0.61747100  0.00158900  0.50185300  1
  C  C36  1  0.92666600  0.64314400  0.20721100  1
  C  C37  1  0.42048200  0.91802100  0.20666600  1
  C  C38  1  0.44559400  0.86954800  0.18381500  1
  C  C39  1  0.40736600  0.83020400  0.16147500  1
  C  C40  1  0.34389000  0.83883400  0.16216500  1
  C  C41  1  0.31865800  0.88701000  0.18507100  1
  C  C42  1  0.35688000  0.92665900  0.20720600  1
  C  C43  1  0.08085300  0.58092100  0.79692100  1
  C  C44  1  0.13054300  0.55693700  0.81912900  1
  C  C45  1  0.17013800  0.59617100  0.84048500  1
  C  C46  1  0.99841100  0.61746600  0.50184800  1
  C  C47  1  0.16025200  0.65948400  0.83959900  1
  C  C48  1  0.11068500  0.68352300  0.81749200  1
  C  C49  1  0.07098900  0.64432700  0.79621900  1
  C  C50  1  0.58082100  0.91911300  0.79694600  1
  C  C51  1  0.55683200  0.86942500  0.81915300  1
  C  C52  1  0.59605900  0.82984400  0.84052600  1
  C  C53  1  0.65937100  0.83974200  0.83965800  1
  C  C54  1  0.68341500  0.88930800  0.81755000  1
  C  C55  1  0.64422400  0.92899000  0.79626100  1
  C  C56  1  0.91914200  0.41910500  0.79694000  1
  C  C57  1  0.38250500  0.99837600  0.50183600  1
  C  C58  1  0.86944900  0.44309200  0.81914300  1
  C  C59  1  0.82986300  0.40386200  0.84050900  1
  C  C60  1  0.83976200  0.34055000  0.83963900  1
  C  C61  1  0.88933300  0.31650900  0.81753700  1
  C  C62  1  0.92902000  0.35570100  0.79625400  1
  C  C63  1  0.41900300  0.08082300  0.79691500  1
  C  C64  1  0.44298500  0.13051800  0.81911800  1
  C  C65  1  0.40374800  0.17011700  0.84046900  1
  C  C66  1  0.34043500  0.16023100  0.83958100  1
  C  C67  1  0.31639900  0.11065700  0.81747800  1
  C  C68  1  0.00162400  0.38250000  0.50184100  1
  C  C69  1  0.35559800  0.07095600  0.79621200  1
  C  C70  1  0.58224500  0.92072500  0.70666200  1
  C  C71  1  0.57387600  0.85708700  0.70722100  1
  C  C72  1  0.61372100  0.81901500  0.68512900  1
  C  C73  1  0.66181900  0.84443200  0.66224100  1
  C  C74  1  0.67016200  0.90794600  0.66151600  1
  C  C75  1  0.63062800  0.94602300  0.68381800  1
  C  C76  1  0.07921700  0.58230600  0.70663600  1
  C  C77  1  0.14285500  0.57393400  0.70719200  1
  C  C78  1  0.18092400  0.61376300  0.68508400  1
  C  C79  1  0.00004200  0.50001700  0.08109000  1
  C  C80  1  0.15550600  0.66184600  0.66218300  1
  C  C81  1  0.09199200  0.67019100  0.66146100  1
  C  C82  1  0.05391700  0.63067500  0.68377900  1
  C  C83  1  0.41762100  0.07917300  0.70663000  1
  C  C84  1  0.42598800  0.14281100  0.70718200  1
  C  C85  1  0.38615400  0.18087500  0.68507500  1
  C  C86  1  0.33806900  0.15545100  0.66217800  1
  C  C87  1  0.32972900  0.09193700  0.66146000  1
  C  C88  1  0.36925100  0.05386600  0.68377700  1
  C  C89  1  0.92076800  0.41768300  0.70665700  1
  C  C90  1  0.49999400  0.00002900  0.08109000  1
  C  C91  1  0.85713000  0.42604900  0.70721200  1
  C  C92  1  0.81906200  0.38619900  0.68512000  1
  C  C93  1  0.84448400  0.33809900  0.66223600  1
  C  C94  1  0.90799800  0.32975900  0.66151400  1
  C  C95  1  0.94607100  0.36929900  0.68381600  1
  C  C96  1  0.58110100  0.08066800  0.29697400  1
  C  C97  1  0.57124900  0.14407600  0.29642600  1
  C  C98  1  0.61084400  0.18313200  0.31789800  1
  C  C99  1  0.66030800  0.15895100  0.34004100  1
  C  C100  1  0.67022800  0.09563700  0.34073000  1
  C  C101  1  0.00001400  0.50001900  0.92281900  1
  C  C102  1  0.63072100  0.05654100  0.31918500  1
  C  C103  1  0.08068100  0.41891700  0.29697000  1
  C  C104  1  0.14408800  0.42876700  0.29642000  1
  C  C105  1  0.18314500  0.38917200  0.31789300  1
  C  C106  1  0.15896300  0.33971000  0.34003700  1
  C  C107  1  0.09564800  0.32979200  0.34072800  1
  C  C108  1  0.05655300  0.36929900  0.31918200  1
  C  C109  1  0.41892000  0.91941400  0.29696400  1
  C  C110  1  0.42877200  0.85600700  0.29640600  1
  C  C111  1  0.38918200  0.81694300  0.31787700  1
  C  C112  1  0.49288200  0.31387500  0.99842200  1
  C  C113  1  0.49993800  0.99999600  0.92281900  1
  C  C114  1  0.33972300  0.84111700  0.34002800  1
  C  C115  1  0.32980200  0.90443100  0.34072600  1
  C  C116  1  0.36930400  0.94353400  0.31918300  1
  C  C117  1  0.91942600  0.58109800  0.29696900  1
  C  C118  1  0.85601900  0.57124200  0.29641200  1
  C  C119  1  0.81695500  0.61083200  0.31788300  1
  C  C120  1  0.84112800  0.66029400  0.34003200  1
  C  C121  1  0.90444100  0.67021700  0.34072900  1
  C  C122  1  0.94354500  0.63071500  0.31918600  1
  C  C123  1  0.31158300  0.44123300  0.93406700  1
  C  C124  1  0.49997300  0.99996100  0.58106000  1
  C  C125  1  0.32920900  0.47220300  0.89811700  1
  C  C126  1  0.35557400  0.44004700  0.86522600  1
  C  C127  1  0.36324200  0.37655400  0.86793900  1
  C  C128  1  0.34431200  0.34529600  0.90348700  1
  C  C129  1  0.31781300  0.37752200  0.93630300  1
  C  C130  1  0.55875100  0.31155900  0.93406100  1
  C  C131  1  0.52777700  0.32913300  0.89810200  1
  C  C132  1  0.55991900  0.35550400  0.86520700  1
  C  C133  1  0.62340400  0.36323000  0.86792700  1
  C  C134  1  0.65466800  0.34435200  0.90348500  1
  C  C135  1  0.00000500  0.49997800  0.58106000  1
  C  C136  1  0.62245500  0.31784900  0.93630600  1
  C  C137  1  0.68847300  0.55872100  0.93405200  1
  C  C138  1  0.67091500  0.52771900  0.89810100  1
  C  C139  1  0.64452900  0.55983200  0.86519800  1
  C  C140  1  0.63677400  0.62331500  0.86790200  1
  C  C141  1  0.65564400  0.65460700  0.90345100  1
  C  C142  1  0.68216200  0.62242400  0.93627900  1
  C  C143  1  0.44126500  0.68845000  0.93405700  1
  C  C144  1  0.47226200  0.67084000  0.89811500  1
  C  C145  1  0.44013600  0.64446100  0.86521500  1
  C  C146  1  0.50000200  0.00000400  0.42279200  1
  C  C147  1  0.37664500  0.63676300  0.86791300  1
  C  C148  1  0.34535900  0.65568200  0.90345200  1
  C  C149  1  0.37755500  0.68219600  0.93627600  1
  C  C150  1  0.31372800  0.57068700  0.06409500  1
  C  C151  1  0.30354400  0.55473400  0.10549000  1
  C  C152  1  0.33246900  0.58733600  0.13720600  1
  C  C153  1  0.37081100  0.63672000  0.12771500  1
  C  C154  1  0.37995100  0.65369100  0.08648100  1
  C  C155  1  0.35148200  0.62070900  0.05475200  1
  C  C156  1  0.57065400  0.68631900  0.06411700  1
  C  C157  1  0.00003100  0.49999000  0.42279200  1
  C  C158  1  0.55468900  0.69650400  0.10551000  1
  C  C159  1  0.58728600  0.66758400  0.13723100  1
  C  C160  1  0.63667600  0.62924500  0.12774600  1
  C  C161  1  0.65365600  0.62010200  0.08651500  1
  C  C162  1  0.62068000  0.64856800  0.05478100  1
  C  C163  1  0.68632600  0.42939700  0.06413900  1
  C  C164  1  0.69651100  0.44538300  0.10552900  1
  C  C165  1  0.66758300  0.41281000  0.13725600  1
  C  C166  1  0.62923400  0.36342300  0.12778300  1
  C  C167  1  0.62009200  0.34642000  0.08655600  1
  C  C168  1  0.03923100  0.46033000  0.27359300  1
  C  C169  1  0.64856700  0.37937100  0.05481400  1
  C  C170  1  0.42936400  0.31372100  0.06411700  1
  C  C171  1  0.44533800  0.30353600  0.10550900  1
  C  C172  1  0.41276000  0.33246900  0.13723200  1
  C  C173  1  0.36337700  0.37082100  0.12775200  1
  C  C174  1  0.34638500  0.37996100  0.08652200  1
  C  C175  1  0.37934300  0.35148200  0.05478600  1
  C  C176  1  0.81105200  0.94269700  0.43276700  1
  C  C177  1  0.82820700  0.97411100  0.39689100  1
  C  C178  1  0.85462600  0.94244800  0.36380300  1
  C  C179  1  0.53969000  0.03921900  0.27359500  1
  C  C180  1  0.86280100  0.87899600  0.36625000  1
  C  C181  1  0.84424800  0.84728200  0.40170500  1
  C  C182  1  0.81774700  0.87902100  0.43473300  1
  C  C183  1  0.05729000  0.81105400  0.43276300  1
  C  C184  1  0.02587100  0.82822500  0.39689200  1
  C  C185  1  0.05753200  0.85464600  0.36380400  1
  C  C186  1  0.12098500  0.86280800  0.36624500  1
  C  C187  1  0.15270500  0.84423900  0.40169400  1
  C  C188  1  0.12096900  0.81773500  0.43472300  1
  C  C189  1  0.18891700  0.05728200  0.43276100  1
  C  C190  1  0.96088200  0.53969100  0.27359300  1
  C  C191  1  0.17175400  0.02587200  0.39688500  1
  C  C192  1  0.14533500  0.05754000  0.36379900  1
  C  C193  1  0.13716800  0.12099200  0.36624700  1
  C  C194  1  0.15572800  0.15270300  0.40170300  1
  C  C195  1  0.18222800  0.12096000  0.43472900  1
  C  C196  1  0.94270600  0.18891800  0.43276500  1
  C  C197  1  0.97411100  0.17177100  0.39688300  1
  C  C198  1  0.94244000  0.14535500  0.36379800  1
  C  C199  1  0.87899000  0.13717400  0.36625200  1
  C  C200  1  0.84728400  0.15571900  0.40171300  1
  C  C201  1  0.46032900  0.96087000  0.27359000  1
  C  C202  1  0.87903000  0.18221600  0.43473900  1
  C  C203  1  0.81424000  0.07106900  0.56321400  1
  C  C204  1  0.80473900  0.05476100  0.60461900  1
  C  C205  1  0.83428300  0.08702300  0.63623200  1
  C  C206  1  0.87251500  0.13645000  0.62663800  1
  C  C207  1  0.88086800  0.15385100  0.58541000  1
  C  C208  1  0.85183000  0.12117400  0.55377500  1
  C  C209  1  0.07109300  0.18572900  0.56320400  1
  C  C210  1  0.05478700  0.19523300  0.60460900  1
  C  C211  1  0.08704700  0.16568800  0.63622300  1
  C  C212  1  0.03860900  0.54020600  0.73016800  1
  C  C213  1  0.13647100  0.12745100  0.62662900  1
  C  C214  1  0.15387000  0.11909600  0.58540100  1
  C  C215  1  0.12119400  0.14813400  0.55376500  1
  C  C216  1  0.18574200  0.92886900  0.56318900  1
  C  C217  1  0.19524900  0.94516000  0.60459600  1
  C  C218  1  0.16571100  0.91288400  0.63620600  1
  C  C219  1  0.12747900  0.86346100  0.62660500  1
  C  C220  1  0.11912000  0.84607700  0.58537500  1
  C  C221  1  0.14815100  0.87876800  0.55374400  1
  C  C222  1  0.92889300  0.81422600  0.56319900  1
  C  C223  1  0.68616400  0.49288600  0.99843000  1
  C  C224  1  0.54013000  0.96133500  0.73018000  1
  C  C225  1  0.94518600  0.80472300  0.60460600  1
  C  C226  1  0.91290900  0.83426000  0.63621600  1
  C  C227  1  0.86348200  0.87248800  0.62661500  1
  C  C228  1  0.84609600  0.88084400  0.58538500  1
  C  C229  1  0.87878800  0.85181300  0.55375400  1
  C  C230  1  0.96137400  0.45979900  0.73017700  1
  C  C231  1  0.45972200  0.03857000  0.73016500  1
  C  C232  1  0.53924400  0.96043000  0.77359000  1
  C  C233  1  0.03952600  0.53933800  0.77357800  1
  C  C234  1  0.46058900  0.03949300  0.77357500  1
  C  C235  1  0.96046200  0.46068400  0.77358700  1
  C  C236  1  0.53877100  0.04012300  0.23019100  1
  C  C237  1  0.04013200  0.46125300  0.23018800  1
  C  C238  1  0.46124600  0.95998100  0.23018600  1
  C  C239  1  0.50713800  0.68614900  0.99841900  1
  C  C240  1  0.95999000  0.53877800  0.23018900  1
  C  C241  1  0.00005300  0.50000700  0.29510300  1
  C  C242  1  0.50001200  0.00003900  0.29510300  1
  C  C243  1  0.99999000  0.49999700  0.70869500  1
  C  C244  1  0.49993200  0.99994900  0.70869500  1
  C  C245  1  0.49991400  0.99996700  0.79510400  1
  C  C246  1  0.99999500  0.50001500  0.79510500  1
  C  C247  1  0.50000900  0.00005400  0.20871200  1
  C  C248  1  0.00006200  0.50001700  0.20871200  1
  C  C249  1  0.18525200  0.50254600  0.00124800  1
  C  C250  1  0.81384300  0.00787800  0.49741200  1
  C  C251  1  0.49744400  0.18523400  0.00124900  1
  C  C252  1  0.81480300  0.49748600  0.00126600  1
  C  C253  1  0.50250400  0.81478600  0.00126500  1
  C  C254  1  0.68521900  0.00301100  0.50081500  1
  C  C255  1  0.99698700  0.68521400  0.50081100  1
  C  C256  1  0.31475700  0.99695600  0.50079800  1
  C  C257  1  0.00304300  0.31475200  0.50080300  1
  C  C258  1  0.50532100  0.61794900  0.99851700  1
  C  C259  1  0.38208900  0.50531200  0.99851200  1
  C  C260  1  0.49472000  0.38207400  0.99851900  1
  C  C261  1  0.99210000  0.81383700  0.49740300  1
  C  C262  1  0.61796400  0.49471100  0.99852400  1
  C  C263  1  0.00577200  0.11791400  0.49742100  1
  C  C264  1  0.88205700  0.00576300  0.49742600  1
  C  C265  1  0.99421000  0.88205000  0.49742000  1
  C  C266  1  0.11792000  0.99420000  0.49741600  1
  C  C267  1  0.00004600  0.50000100  0.34010700  1
  C  C268  1  0.50001200  0.00002900  0.34010700  1
  C  C269  1  0.99999200  0.49998600  0.66370600  1
  C  C270  1  0.49994800  0.99994700  0.66370600  1
  C  C271  1  0.49991400  0.99998000  0.84011700  1
  C  C272  1  0.18613300  0.99208400  0.49739700  1
  C  C273  1  0.00000100  0.50001900  0.84011700  1
  C  C274  1  0.50001000  0.00005300  0.16372900  1
  C  C275  1  0.00005800  0.50001700  0.16372900  1
  C  C276  1  0.00005200  0.50001700  0.12598100  1
  C  C277  1  0.50000600  0.00004500  0.12598100  1
  C  C278  1  0.00000700  0.50002000  0.87788700  1
  C  C279  1  0.49992300  0.99998900  0.87788700  1
  C  C280  1  0.49996100  0.99995000  0.62595500  1
  C  C281  1  0.99999600  0.49998000  0.62595500  1
  C  C282  1  0.50000900  0.00001700  0.37787100  1
  C  C283  1  0.00789300  0.18612700  0.49740500  1
  C  C284  1  0.00003900  0.49999600  0.37787100  1
  C  C285  1  0.21690800  0.47176700  0.97005700  1
  C  C286  1  0.52821400  0.21688700  0.97005200  1
  C  C287  1  0.78314800  0.52823200  0.97006000  1
  C  C288  1  0.47174900  0.78312700  0.97006500  1
  C  C289  1  0.21762900  0.53498200  0.03137700  1
  C  C290  1  0.53493600  0.78241300  0.03139800  1
  C  C291  1  0.78242600  0.46507800  0.03140900  1
  C  C292  1  0.46503300  0.21761600  0.03138800  1
  C  C293  1  0.71664000  0.97262000  0.46933500  1
  C  C294  1  0.11750400  0.50136500  0.00197900  1
  C  C295  1  0.02738100  0.71663800  0.46933300  1
  C  C296  1  0.28333400  0.02735700  0.46932400  1
  C  C297  1  0.97264400  0.28333200  0.46932600  1
  C  C298  1  0.71782800  0.03535600  0.53087800  1
  C  C299  1  0.03538700  0.28214200  0.53086500  1
  C  C300  1  0.28215000  0.96459800  0.53085600  1
  C  C301  1  0.96463000  0.71781900  0.53086900  1
  C  C302  1  0.28071800  0.47500100  0.96791200  1
  C  C303  1  0.52499700  0.28069800  0.96791300  1
  C  C304  1  0.71933800  0.52499500  0.96791600  1
  O  O1  1  0.08791400  0.55198900  0.01439500  1
  O  O2  1  0.94788100  0.58779000  0.51435500  1
  O  O3  1  0.41217700  0.94784400  0.51434300  1
  O  O4  1  0.05215100  0.41217300  0.51435600  1
  O  O5  1  0.58910100  0.95023800  0.48949500  1
  O  O6  1  0.95027200  0.41087200  0.48948800  1
  O  O7  1  0.41087800  0.04973300  0.48949300  1
  O  O8  1  0.04976800  0.58909500  0.48950100  1
  O  O9  1  0.98104100  0.55079700  0.06157800  1
  O  O10  1  0.44920800  0.98102600  0.06158600  1
  O  O11  1  0.01903300  0.44923700  0.06157500  1
  O  O12  1  0.44800000  0.08789800  0.01440200  1
  O  O13  1  0.55076800  0.01901800  0.06156600  1
  O  O14  1  0.98218100  0.44882500  0.94235700  1
  O  O15  1  0.44875100  0.01783600  0.94236300  1
  O  O16  1  0.01785400  0.55121300  0.94235500  1
  O  O17  1  0.55113900  0.98216200  0.94235000  1
  O  O18  1  0.48089900  0.05071600  0.56154800  1
  O  O19  1  0.94925800  0.48090000  0.56154000  1
  O  O20  1  0.51905600  0.94921600  0.56153900  1
  O  O21  1  0.05075800  0.51905700  0.56154800  1
  O  O22  1  0.48224300  0.94877700  0.44231600  1
  O  O23  1  0.91214400  0.44804600  0.01440800  1
  O  O24  1  0.94880600  0.51774300  0.44232100  1
  O  O25  1  0.51775300  0.05122000  0.44233200  1
  O  O26  1  0.05124900  0.48223200  0.44232700  1
  O  O27  1  0.52101100  0.58791800  0.96395900  1
  O  O28  1  0.41212300  0.52099300  0.96395300  1
  O  O29  1  0.47904800  0.41210500  0.96395700  1
  O  O30  1  0.58793700  0.47903000  0.96396200  1
  O  O31  1  0.51210500  0.41046600  0.03333600  1
  O  O32  1  0.41047800  0.48792700  0.03333100  1
  O  O33  1  0.48793700  0.58955500  0.03333500  1
  O  O34  1  0.55194200  0.91212700  0.01440100  1
  O  O35  1  0.58956700  0.51209500  0.03334000  1
  O  O36  1  0.02128000  0.08782000  0.46284200  1
  O  O37  1  0.91214800  0.02127600  0.46284600  1
  O  O38  1  0.97869200  0.91214400  0.46284300  1
  O  O39  1  0.08782300  0.97868800  0.46283900  1
  O  O40  1  0.01174000  0.91039500  0.53221900  1
  O  O41  1  0.91040500  0.98823400  0.53222300  1
  O  O42  1  0.98824500  0.08956800  0.53222000  1
  O  O43  1  0.08957800  0.01172900  0.53221600  1
  O  O44  1  0.08906100  0.45010300  0.98953400  1
  O  O45  1  0.45004700  0.91097200  0.98955700  1
  O  O46  1  0.91099000  0.54993300  0.98954800  1
  O  O47  1  0.54987700  0.08904300  0.98952500  1
  O  O48  1  0.58779500  0.05211400  0.51436900  1
  F  F1  1  0.20018500  0.30638600  0.14031100  1
  F  F2  1  0.19292900  0.70085700  0.64034600  1
  F  F3  1  0.29905100  0.19286900  0.64034200  1
  F  F4  1  0.80706200  0.29906500  0.64041600  1
  F  F5  1  0.69916500  0.19748100  0.36108700  1
  F  F6  1  0.19749200  0.30085500  0.36108600  1
  F  F7  1  0.30087400  0.80258100  0.36107400  1
  F  F8  1  0.80259100  0.69914400  0.36107700  1
  F  F9  1  0.38867200  0.34476900  0.83548300  1
  F  F10  1  0.65517700  0.38866900  0.83546800  1
  F  F11  1  0.61131700  0.65505800  0.83543600  1
  F  F12  1  0.69364100  0.20019700  0.14033400  1
  F  F13  1  0.34489000  0.61131500  0.83544900  1
  F  F14  1  0.39919600  0.66872500  0.15892100  1
  F  F15  1  0.66867600  0.60086500  0.15895600  1
  F  F16  1  0.60084400  0.33144800  0.15900100  1
  F  F17  1  0.33139700  0.39921600  0.15896500  1
  F  F18  1  0.88835900  0.84769500  0.33362500  1
  F  F19  1  0.15228300  0.88836800  0.33362000  1
  F  F20  1  0.11161100  0.15229700  0.33362400  1
  F  F21  1  0.84768200  0.11162000  0.33362900  1
  F  F22  1  0.90158700  0.16805700  0.65773900  1
  F  F23  1  0.79999800  0.69370600  0.14031200  1
  F  F24  1  0.16807500  0.09837800  0.65773000  1
  F  F25  1  0.09841300  0.83184100  0.65770300  1
  F  F26  1  0.83186000  0.90155200  0.65771300  1
  F  F27  1  0.30632000  0.80001100  0.14028900  1
  F  F28  1  0.19926400  0.69815100  0.86040000  1
  F  F29  1  0.69803300  0.80074700  0.86047600  1
  F  F30  1  0.80075900  0.30188600  0.86045100  1
  F  F31  1  0.30176500  0.19924800  0.86037500  1
  F  F32  1  0.70084700  0.80700500  0.64042000  1
