# generated using pymatgen
data_VH8C17O6
_symmetry_space_group_name_H-M   'P 1'
_cell_length_a   25.04780000
_cell_length_b   6.81800000
_cell_length_c   21.15369800
_cell_angle_alpha   90.00000000
_cell_angle_beta   100.24390600
_cell_angle_gamma   90.00000000
_symmetry_Int_Tables_number   1
_chemical_formula_structural   VH8C17O6
_chemical_formula_sum   'V4 H32 C68 O24'
_cell_volume   3554.95652689
_cell_formula_units_Z   4
loop_
 _symmetry_equiv_pos_site_id
 _symmetry_equiv_pos_as_xyz
  1  'x, y, z'
loop_
 _atom_site_type_symbol
 _atom_site_label
 _atom_site_symmetry_multiplicity
 _atom_site_fract_x
 _atom_site_fract_y
 _atom_site_fract_z
 _atom_site_occupancy
  V  V1  1  0.74896300  0.17528500  0.23941500  1
  V  V2  1  0.25103700  0.82471500  0.76058500  1
  V  V3  1  0.75103800  0.67528600  0.26058400  1
  V  V4  1  0.24896200  0.32471400  0.73941500  1
  H  H1  1  0.42853200  0.31951100  0.54737400  1
  H  H2  1  0.57146800  0.68048900  0.45262600  1
  H  H3  1  0.07146800  0.81951100  0.95262600  1
  H  H4  1  0.92853200  0.18048800  0.04737400  1
  H  H5  1  0.37418500  0.71957300  0.64842300  1
  H  H6  1  0.62581500  0.28042700  0.35157700  1
  H  H7  1  0.12581600  0.21957000  0.85157900  1
  H  H8  1  0.87418400  0.78043000  0.14842100  1
  H  H9  1  0.44352400  0.70386500  0.57949000  1
  H  H10  1  0.55647600  0.29613500  0.42051000  1
  H  H11  1  0.05647800  0.20386300  0.92051200  1
  H  H12  1  0.94352200  0.79613600  0.07948800  1
  H  H13  1  0.89819600  0.27339700  0.36480500  1
  H  H14  1  0.10180500  0.72660400  0.63519500  1
  H  H15  1  0.60180500  0.77339700  0.13519500  1
  H  H16  1  0.39819500  0.22660300  0.86480600  1
  H  H17  1  0.87863200  0.67427600  0.41386500  1
  H  H18  1  0.12136800  0.32572400  0.58613500  1
  H  H19  1  0.62136800  0.17427600  0.08613500  1
  H  H20  1  0.37863200  0.82572400  0.91386500  1
  H  H21  1  0.94243400  0.52539600  0.49839900  1
  H  H22  1  0.05756600  0.47460400  0.50160100  1
  H  H23  1  0.55756600  0.02539700  0.00160100  1
  H  H24  1  0.44243400  0.97460400  0.99839900  1
  H  H25  1  0.02518800  0.54472200  0.58039900  1
  H  H26  1  0.97481300  0.45527800  0.41960100  1
  H  H27  1  0.47481200  0.04472200  0.91960100  1
  H  H28  1  0.52518800  0.95527800  0.08039900  1
  H  H29  1  0.32167100  0.37900600  0.58429500  1
  H  H30  1  0.67833000  0.62099500  0.41570400  1
  H  H31  1  0.17833900  0.87897500  0.91569300  1
  H  H32  1  0.82166000  0.12102800  0.08431000  1
  C  C1  1  0.66710900  0.45766000  0.16633800  1
  C  C2  1  0.33289100  0.54234000  0.83366200  1
  C  C3  1  0.83289100  0.95766100  0.33366100  1
  C  C4  1  0.16710900  0.04234000  0.66633800  1
  C  C5  1  0.81970500  0.45772500  0.17949100  1
  C  C6  1  0.18029500  0.54227300  0.82051000  1
  C  C7  1  0.68029400  0.95772500  0.32051000  1
  C  C8  1  0.31970500  0.04227600  0.67949000  1
  C  C9  1  0.41682100  0.18679900  0.56931200  1
  C  C10  1  0.58317900  0.81320100  0.43068800  1
  C  C11  1  0.08317900  0.68679600  0.93068800  1
  C  C12  1  0.91682000  0.31320300  0.06931300  1
  C  C13  1  0.37753000  0.19579300  0.60829000  1
  C  C14  1  0.62247100  0.80420700  0.39171000  1
  C  C15  1  0.12247000  0.69579200  0.89171000  1
  C  C16  1  0.87753000  0.30420900  0.10828900  1
  C  C17  1  0.36151400  0.02868600  0.63731700  1
  C  C18  1  0.63848600  0.97131500  0.36268300  1
  C  C19  1  0.13848600  0.52868400  0.86268400  1
  C  C20  1  0.86151400  0.47131500  0.13731600  1
  C  C21  1  0.38580900  0.85211100  0.62630200  1
  C  C22  1  0.61419100  0.14788900  0.37369800  1
  C  C23  1  0.11419200  0.35211000  0.87370000  1
  C  C24  1  0.88580800  0.64789000  0.12630000  1
  C  C25  1  0.42517100  0.84328600  0.58723200  1
  C  C26  1  0.57482800  0.15671300  0.41276900  1
  C  C27  1  0.07483000  0.34328400  0.91277000  1
  C  C28  1  0.92517000  0.65671500  0.08723000  1
  C  C29  1  0.44120000  0.01071000  0.55825900  1
  C  C30  1  0.55880000  0.98928900  0.44174100  1
  C  C31  1  0.05880000  0.51071100  0.94174200  1
  C  C32  1  0.94120000  0.48928800  0.05825800  1
  C  C33  1  0.48270600  0.00282100  0.51715600  1
  C  C34  1  0.51729400  0.99717900  0.48284400  1
  C  C35  1  0.01729300  0.50282000  0.98284400  1
  C  C36  1  0.98270600  0.49717900  0.01715600  1
  C  C37  1  0.91171900  0.14585300  0.39359800  1
  C  C38  1  0.08828100  0.85414700  0.60640300  1
  C  C39  1  0.58828200  0.64585400  0.10640200  1
  C  C40  1  0.41171900  0.35414600  0.89359800  1
  C  C41  1  0.88248200  0.97250800  0.38364800  1
  C  C42  1  0.11751800  0.02749300  0.61635200  1
  C  C43  1  0.61751800  0.47250700  0.11635200  1
  C  C44  1  0.38248200  0.52749300  0.88364800  1
  C  C45  1  0.90089600  0.81067500  0.42095900  1
  C  C46  1  0.09910400  0.18932500  0.57904100  1
  C  C47  1  0.59910400  0.31067600  0.07904100  1
  C  C48  1  0.40089600  0.68932500  0.92095900  1
  C  C49  1  0.94748600  0.82210400  0.46756400  1
  C  C50  1  0.05251400  0.17789700  0.53243700  1
  C  C51  1  0.55251400  0.32210300  0.03243600  1
  C  C52  1  0.44748600  0.67789600  0.96756400  1
  C  C53  1  0.97656300  0.99462900  0.47686300  1
  C  C54  1  0.02343700  0.00537100  0.52313700  1
  C  C55  1  0.52343700  0.49463000  0.02313700  1
  C  C56  1  0.47656300  0.50537200  0.97686300  1
  C  C57  1  0.95871200  0.15626500  0.43974600  1
  C  C58  1  0.04128900  0.84373500  0.56025500  1
  C  C59  1  0.54128900  0.65626500  0.06025400  1
  C  C60  1  0.45871200  0.34373500  0.93974500  1
  C  C61  1  0.96519300  0.66079200  0.50504400  1
  C  C62  1  0.03480800  0.33920800  0.49495600  1
  C  C63  1  0.53480800  0.16079200  0.99495600  1
  C  C64  1  0.46519300  0.83920800  0.00504400  1
  C  C65  1  0.01181900  0.67159500  0.55118900  1
  C  C66  1  0.98818100  0.32840500  0.44881200  1
  C  C67  1  0.48818100  0.17159600  0.94881200  1
  C  C68  1  0.51181900  0.82840600  0.05118800  1
  O  O1  1  0.80430800  0.62616200  0.20393400  1
  O  O2  1  0.19569300  0.37383700  0.79606600  1
  O  O3  1  0.69569200  0.12616200  0.29606400  1
  O  O4  1  0.30430800  0.87383900  0.70393600  1
  O  O5  1  0.68891600  0.27850800  0.17506800  1
  O  O6  1  0.31108300  0.72149200  0.82493200  1
  O  O7  1  0.81108300  0.77850900  0.32493200  1
  O  O8  1  0.18891600  0.22149200  0.67506700  1
  O  O9  1  0.79880500  0.27884100  0.18454400  1
  O  O10  1  0.20119600  0.72116200  0.81545700  1
  O  O11  1  0.70119600  0.77883700  0.31545600  1
  O  O12  1  0.29880500  0.22116100  0.68454500  1
  O  O13  1  0.81309200  0.12602300  0.30619800  1
  O  O14  1  0.18690800  0.87397500  0.69380200  1
  O  O15  1  0.68690800  0.62602500  0.19380300  1
  O  O16  1  0.31309200  0.37397700  0.80619700  1
  O  O17  1  0.75405000  0.44767000  0.28938700  1
  O  O18  1  0.24595000  0.55233000  0.71061300  1
  O  O19  1  0.74595000  0.94767100  0.21061300  1
  O  O20  1  0.25405000  0.05233000  0.78938800  1
  O  O21  1  0.35444700  0.37210200  0.61816300  1
  O  O22  1  0.64555300  0.62789900  0.38183700  1
  O  O23  1  0.14555400  0.87210000  0.88183700  1
  O  O24  1  0.85444600  0.12790000  0.11816300  1
