# generated using pymatgen
data_Zn3H72(C13O3)4
_symmetry_space_group_name_H-M   'P 1'
_cell_length_a   21.82764800
_cell_length_b   21.82766800
_cell_length_c   18.60778300
_cell_angle_alpha   90.00000000
_cell_angle_beta   90.00000000
_cell_angle_gamma   90.00000000
_symmetry_Int_Tables_number   1
_chemical_formula_structural   Zn3H72(C13O3)4
_chemical_formula_sum   'Zn12 H288 C208 O48'
_cell_volume   8865.61594433
_cell_formula_units_Z   4
loop_
 _symmetry_equiv_pos_site_id
 _symmetry_equiv_pos_as_xyz
  1  'x, y, z'
loop_
 _atom_site_type_symbol
 _atom_site_label
 _atom_site_symmetry_multiplicity
 _atom_site_fract_x
 _atom_site_fract_y
 _atom_site_fract_z
 _atom_site_occupancy
  Zn  Zn1  1  0.93081100  0.50004700  0.49991800  1
  Zn  Zn2  1  0.49977900  0.06916300  0.50015200  1
  Zn  Zn3  1  0.06928300  0.50025200  0.50010700  1
  Zn  Zn4  1  0.49999400  0.93069000  0.49987300  1
  Zn  Zn5  1  0.43071700  0.99974600  0.00010900  1
  Zn  Zn6  1  0.00000600  0.56931200  0.99987300  1
  Zn  Zn7  1  0.56918900  0.99995200  0.99991600  1
  Zn  Zn8  1  0.00022100  0.43083900  0.00015100  1
  Zn  Zn9  1  0.99991100  0.00039600  0.56852100  1
  Zn  Zn10  1  0.99963000  0.00014700  0.43165700  1
  Zn  Zn11  1  0.50008700  0.49960300  0.06852100  1
  Zn  Zn12  1  0.50037100  0.49985200  0.93165600  1
  H  H1  1  0.06806200  0.29752700  0.65997700  1
  H  H2  1  0.07093000  0.36154800  0.60711000  1
  H  H3  1  0.14870900  0.24882300  0.56816300  1
  H  H4  1  0.16553600  0.38602400  0.54090000  1
  H  H5  1  0.14020300  0.32902100  0.47582200  1
  H  H6  1  0.21581100  0.32483300  0.51339600  1
  H  H7  1  0.17688000  0.35412400  0.67224800  1
  H  H8  1  0.23215600  0.29965100  0.63801800  1
  H  H9  1  0.17013700  0.27346300  0.69396300  1
  H  H10  1  0.29678900  0.93314000  0.66074300  1
  H  H11  1  0.36094700  0.93004300  0.60835800  1
  H  H12  1  0.24842700  0.85179100  0.56964700  1
  H  H13  1  0.38567700  0.83474700  0.54298400  1
  H  H14  1  0.32886400  0.85968900  0.47745700  1
  H  H15  1  0.32451000  0.78435100  0.51573700  1
  H  H16  1  0.35354600  0.82450400  0.67430000  1
  H  H17  1  0.29919000  0.76892200  0.64050000  1
  H  H18  1  0.27283700  0.83133300  0.69573400  1
  H  H19  1  0.93346200  0.70318400  0.66177100  1
  H  H20  1  0.93041000  0.63898000  0.60939800  1
  H  H21  1  0.85174200  0.75123600  0.57081900  1
  H  H22  1  0.83502400  0.61389200  0.54459100  1
  H  H23  1  0.85949800  0.67071200  0.47881500  1
  H  H24  1  0.78430000  0.67483500  0.51749400  1
  H  H25  1  0.82504800  0.64628200  0.67592400  1
  H  H26  1  0.76921800  0.70040900  0.64218400  1
  H  H27  1  0.83172400  0.72705500  0.69707000  1
  H  H28  1  0.70244200  0.06774800  0.66100600  1
  H  H29  1  0.63837700  0.07056900  0.60815300  1
  H  H30  1  0.75083500  0.14876500  0.56932700  1
  H  H31  1  0.61353800  0.16526300  0.54249900  1
  H  H32  1  0.67055100  0.14040000  0.47717000  1
  H  H33  1  0.67450200  0.21587000  0.51514200  1
  H  H34  1  0.64569800  0.17634600  0.67386900  1
  H  H35  1  0.69994100  0.23187300  0.63969300  1
  H  H36  1  0.72642400  0.16975800  0.69529300  1
  H  H37  1  0.06426300  0.70280100  0.33913100  1
  H  H38  1  0.06699800  0.63860700  0.39146200  1
  H  H39  1  0.14613200  0.75046900  0.43026200  1
  H  H40  1  0.16231200  0.61298100  0.45600700  1
  H  H41  1  0.13816500  0.66976000  0.52199400  1
  H  H42  1  0.21334400  0.67362600  0.48323500  1
  H  H43  1  0.17235400  0.64574000  0.32468400  1
  H  H44  1  0.22845900  0.69946600  0.35868600  1
  H  H45  1  0.16607100  0.72662800  0.30397400  1
  H  H46  1  0.29731200  0.06401500  0.33815000  1
  H  H47  1  0.36154700  0.06668500  0.39048700  1
  H  H48  1  0.24994800  0.14621600  0.42917200  1
  H  H49  1  0.38752400  0.16204400  0.45453000  1
  H  H50  1  0.33072800  0.13834500  0.52073300  1
  H  H51  1  0.32710600  0.21339700  0.48161800  1
  H  H52  1  0.35453100  0.17189100  0.32319400  1
  H  H53  1  0.30102700  0.22822700  0.35714900  1
  H  H54  1  0.27358700  0.16577000  0.30274100  1
  H  H55  1  0.93474400  0.29801700  0.33899700  1
  H  H56  1  0.93228700  0.36211800  0.39178800  1
  H  H57  1  0.85327800  0.25028000  0.43075300  1
  H  H58  1  0.83760200  0.38780000  0.45673400  1
  H  H59  1  0.86175300  0.33082400  0.52248100  1
  H  H60  1  0.78641400  0.32732800  0.48411100  1
  H  H61  1  0.82664700  0.35506000  0.32536400  1
  H  H62  1  0.77064500  0.30140800  0.35976100  1
  H  H63  1  0.83271600  0.27416800  0.30461100  1
  H  H64  1  0.70209800  0.93451000  0.33997500  1
  H  H65  1  0.63803700  0.93198200  0.39276500  1
  H  H66  1  0.75014000  0.85337200  0.43182600  1
  H  H67  1  0.61271000  0.83733900  0.45819600  1
  H  H68  1  0.66966700  0.86193500  0.52372500  1
  H  H69  1  0.67341200  0.78647400  0.48570300  1
  H  H70  1  0.64521600  0.82620100  0.32684000  1
  H  H71  1  0.69909200  0.77043000  0.36127400  1
  H  H72  1  0.72605100  0.83243500  0.30583000  1
  H  H73  1  0.56654100  0.79681700  0.16177000  1
  H  H74  1  0.56959200  0.86101900  0.10939800  1
  H  H75  1  0.64826100  0.74876400  0.07081800  1
  H  H76  1  0.66497700  0.88611000  0.04458700  1
  H  H77  1  0.64050400  0.82929000  0.97881200  1
  H  H78  1  0.71570200  0.82516800  0.01749000  1
  H  H79  1  0.67495300  0.85372000  0.17592000  1
  H  H80  1  0.73078600  0.79959500  0.14217900  1
  H  H81  1  0.66828000  0.77294600  0.19706600  1
  H  H82  1  0.79756000  0.43225400  0.16100700  1
  H  H83  1  0.86162400  0.42943300  0.10815300  1
  H  H84  1  0.74916500  0.35123700  0.06932900  1
  H  H85  1  0.88646200  0.33473900  0.04249900  1
  H  H86  1  0.82945000  0.35960200  0.97717100  1
  H  H87  1  0.82549900  0.28413100  0.01514300  1
  H  H88  1  0.85430300  0.32365400  0.17386900  1
  H  H89  1  0.80005900  0.26812900  0.13969300  1
  H  H90  1  0.77357700  0.33024400  0.19529400  1
  H  H91  1  0.43194300  0.20247100  0.15998000  1
  H  H92  1  0.42907200  0.13845100  0.10711400  1
  H  H93  1  0.35129400  0.25117700  0.06816900  1
  H  H94  1  0.33446400  0.11397600  0.04090400  1
  H  H95  1  0.35979700  0.17098000  0.97582600  1
  H  H96  1  0.28419000  0.17516800  0.01340200  1
  H  H97  1  0.32312400  0.14587700  0.17225300  1
  H  H98  1  0.26784800  0.20035100  0.13802400  1
  H  H99  1  0.32986800  0.22653800  0.19396700  1
  H  H100  1  0.20321300  0.56686000  0.16074200  1
  H  H101  1  0.13905400  0.56995700  0.10835900  1
  H  H102  1  0.25157300  0.64821100  0.06964800  1
  H  H103  1  0.11432200  0.66525400  0.04298600  1
  H  H104  1  0.17113500  0.64031400  0.97745800  1
  H  H105  1  0.17548900  0.71565100  0.01574000  1
  H  H106  1  0.14645400  0.67549400  0.17430200  1
  H  H107  1  0.20080800  0.73107800  0.14050300  1
  H  H108  1  0.22716300  0.66866700  0.19573500  1
  H  H109  1  0.56525100  0.20198400  0.83899300  1
  H  H110  1  0.56770900  0.13788200  0.89178600  1
  H  H111  1  0.64671800  0.24971900  0.93074900  1
  H  H112  1  0.66239600  0.11220100  0.95672700  1
  H  H113  1  0.63824500  0.16917700  0.02247500  1
  H  H114  1  0.71358400  0.17267500  0.98410200  1
  H  H115  1  0.67334800  0.14494200  0.82535700  1
  H  H116  1  0.72934900  0.19859500  0.85975200  1
  H  H117  1  0.66727700  0.22583300  0.80460500  1
  H  H118  1  0.79789900  0.56549000  0.83997500  1
  H  H119  1  0.86196100  0.56801800  0.89276600  1
  H  H120  1  0.74985800  0.64662800  0.93182500  1
  H  H121  1  0.88728900  0.66266200  0.95819300  1
  H  H122  1  0.83033200  0.63806600  0.02372400  1
  H  H123  1  0.82658600  0.71352700  0.98570000  1
  H  H124  1  0.85478200  0.67379700  0.82683800  1
  H  H125  1  0.80090800  0.72956900  0.86127100  1
  H  H126  1  0.77394800  0.66756400  0.80582800  1
  H  H127  1  0.43573300  0.79719800  0.83913300  1
  H  H128  1  0.43300000  0.86139300  0.89146500  1
  H  H129  1  0.35386600  0.74953200  0.93026600  1
  H  H130  1  0.33768800  0.88702100  0.95600800  1
  H  H131  1  0.36183400  0.83024200  0.02199600  1
  H  H132  1  0.28665400  0.82637600  0.98323700  1
  H  H133  1  0.32764400  0.85426100  0.82468500  1
  H  H134  1  0.27153800  0.80053700  0.85868800  1
  H  H135  1  0.33392600  0.77337400  0.80397700  1
  H  H136  1  0.20268600  0.43598700  0.83814800  1
  H  H137  1  0.13845100  0.43331700  0.89048700  1
  H  H138  1  0.25005100  0.35378600  0.92917100  1
  H  H139  1  0.11247500  0.33795900  0.95452800  1
  H  H140  1  0.16927100  0.36165700  0.02073100  1
  H  H141  1  0.17289400  0.28660500  0.98161600  1
  H  H142  1  0.14546900  0.32811000  0.82319200  1
  H  H143  1  0.19897300  0.27177500  0.85714700  1
  H  H144  1  0.22641200  0.33423200  0.80274000  1
  H  H145  1  0.08966300  0.19553600  0.64368300  1
  H  H146  1  0.04651900  0.13275300  0.62113100  1
  H  H147  1  0.98315500  0.24506300  0.68625100  1
  H  H148  1  0.95434600  0.10777000  0.68769500  1
  H  H149  1  0.91682900  0.16592300  0.63307200  1
  H  H150  1  0.91046000  0.16807300  0.72922600  1
  H  H151  1  0.04722300  0.13769400  0.76186800  1
  H  H152  1  0.99756700  0.19332700  0.80430500  1
  H  H153  1  0.06928300  0.21759400  0.76573300  1
  H  H154  1  0.19499700  0.91134600  0.64446200  1
  H  H155  1  0.13223700  0.95428100  0.62148800  1
  H  H156  1  0.24444300  0.01819100  0.68615100  1
  H  H157  1  0.10713600  0.04683100  0.68731000  1
  H  H158  1  0.16525400  0.08408000  0.63236700  1
  H  H159  1  0.16738500  0.09105000  0.72846300  1
  H  H160  1  0.13711200  0.95441200  0.76219200  1
  H  H161  1  0.19261400  0.00443200  0.80428400  1
  H  H162  1  0.21704800  0.93252400  0.76635000  1
  H  H163  1  0.91118400  0.80497400  0.64530100  1
  H  H164  1  0.95383900  0.86786600  0.62208800  1
  H  H165  1  0.01822100  0.75602800  0.68702100  1
  H  H166  1  0.04636100  0.89344300  0.68777000  1
  H  H167  1  0.08380600  0.83533700  0.63298600  1
  H  H168  1  0.09081200  0.83344700  0.72908200  1
  H  H169  1  0.95400800  0.86325800  0.76275500  1
  H  H170  1  0.00433600  0.80812600  0.80501800  1
  H  H171  1  0.93253400  0.78322300  0.76723000  1
  H  H172  1  0.80443300  0.08983500  0.64451500  1
  H  H173  1  0.86735000  0.04697000  0.62172500  1
  H  H174  1  0.75540900  0.98313800  0.68712900  1
  H  H175  1  0.89281000  0.95482700  0.68815600  1
  H  H176  1  0.83466800  0.91711200  0.63369800  1
  H  H177  1  0.83276000  0.91071200  0.72985400  1
  H  H178  1  0.86268200  0.04764600  0.76242100  1
  H  H179  1  0.80742100  0.99768200  0.80504200  1
  H  H180  1  0.78267900  0.06929100  0.76661100  1
  H  H181  1  0.08695500  0.80443800  0.35548700  1
  H  H182  1  0.04454500  0.86751300  0.37856500  1
  H  H183  1  0.97966500  0.75586700  0.31390200  1
  H  H184  1  0.95215600  0.89340100  0.31285600  1
  H  H185  1  0.91447800  0.83556800  0.36781300  1
  H  H186  1  0.90740500  0.83353600  0.27172500  1
  H  H187  1  0.04425300  0.86270900  0.23785200  1
  H  H188  1  0.99374600  0.80763700  0.19578400  1
  H  H189  1  0.06548700  0.78260100  0.23361400  1
  H  H190  1  0.19567600  0.08718200  0.35470000  1
  H  H191  1  0.13246900  0.04504300  0.37799100  1
  H  H192  1  0.24374800  0.97972200  0.31302800  1
  H  H193  1  0.10611200  0.95270600  0.31237200  1
  H  H194  1  0.16393200  0.91481500  0.36715200  1
  H  H195  1  0.16572600  0.90774600  0.27106000  1
  H  H196  1  0.13701000  0.04476700  0.23731300  1
  H  H197  1  0.19171700  0.99397500  0.19505200  1
  H  H198  1  0.21721300  0.06559300  0.23277600  1
  H  H199  1  0.91183500  0.19618300  0.35556300  1
  H  H200  1  0.95422200  0.13297500  0.37841900  1
  H  H201  1  0.01893400  0.24440300  0.31300600  1
  H  H202  1  0.04619400  0.10679400  0.31204600  1
  H  H203  1  0.08432500  0.16466100  0.36651100  1
  H  H204  1  0.09078800  0.16649400  0.27036000  1
  H  H205  1  0.95366000  0.13759900  0.23770500  1
  H  H206  1  0.00405100  0.19248200  0.19510300  1
  H  H207  1  0.93260500  0.21775700  0.23347700  1
  H  H208  1  0.80393000  0.91207700  0.35633700  1
  H  H209  1  0.86700700  0.95473200  0.37898500  1
  H  H210  1  0.75521100  0.01901200  0.31388900  1
  H  H211  1  0.89271800  0.04676000  0.31253300  1
  H  H212  1  0.83484000  0.08467500  0.36718400  1
  H  H213  1  0.83276700  0.09114900  0.27103800  1
  H  H214  1  0.86211400  0.95420100  0.23823100  1
  H  H215  1  0.80686400  0.00431000  0.19583800  1
  H  H216  1  0.78205300  0.93274000  0.23430900  1
  H  H217  1  0.58881900  0.69502500  0.14529800  1
  H  H218  1  0.54616200  0.63213400  0.12208700  1
  H  H219  1  0.48178200  0.74397400  0.18701700  1
  H  H220  1  0.45363700  0.60656100  0.18776800  1
  H  H221  1  0.41619600  0.66466600  0.13298200  1
  H  H222  1  0.40918700  0.66655800  0.22907700  1
  H  H223  1  0.54599000  0.63674400  0.26275500  1
  H  H224  1  0.49566300  0.69188000  0.30501500  1
  H  H225  1  0.56746700  0.71677900  0.26722800  1
  H  H226  1  0.69556900  0.41016700  0.14451800  1
  H  H227  1  0.63265100  0.45303100  0.12172900  1
  H  H228  1  0.74459300  0.51686300  0.18713200  1
  H  H229  1  0.60719200  0.54517800  0.18815600  1
  H  H230  1  0.66533500  0.58289000  0.13369700  1
  H  H231  1  0.66724300  0.58929300  0.22985100  1
  H  H232  1  0.63731800  0.45236000  0.26242300  1
  H  H233  1  0.69257900  0.50232300  0.30504400  1
  H  H234  1  0.71732000  0.43071300  0.26661600  1
  H  H235  1  0.41033900  0.30446400  0.14368500  1
  H  H236  1  0.45348000  0.36724700  0.12113100  1
  H  H237  1  0.51684800  0.25494000  0.18625400  1
  H  H238  1  0.54565300  0.39223400  0.18769500  1
  H  H239  1  0.58317300  0.33408100  0.13307500  1
  H  H240  1  0.58954000  0.33193300  0.22922900  1
  H  H241  1  0.45277600  0.36230900  0.26186700  1
  H  H242  1  0.50243400  0.30667900  0.30430700  1
  H  H243  1  0.43071900  0.28240700  0.26573500  1
  H  H244  1  0.30500600  0.58865600  0.14445900  1
  H  H245  1  0.36776400  0.54572000  0.12148500  1
  H  H246  1  0.25555900  0.48181000  0.18614700  1
  H  H247  1  0.39286700  0.45317300  0.18730900  1
  H  H248  1  0.33475000  0.41592100  0.13236800  1
  H  H249  1  0.33262000  0.40895400  0.22846400  1
  H  H250  1  0.36288600  0.54559200  0.26219000  1
  H  H251  1  0.30738500  0.49557200  0.30428200  1
  H  H252  1  0.28295000  0.56747800  0.26634600  1
  H  H253  1  0.58816000  0.30381500  0.85555900  1
  H  H254  1  0.54577500  0.36702500  0.87841900  1
  H  H255  1  0.48106000  0.25560000  0.81300400  1
  H  H256  1  0.45380700  0.39321100  0.81204600  1
  H  H257  1  0.41567200  0.33534500  0.86650800  1
  H  H258  1  0.40921100  0.33351300  0.77035800  1
  H  H259  1  0.54634000  0.36240200  0.73770400  1
  H  H260  1  0.49594600  0.30752400  0.69510100  1
  H  H261  1  0.56739000  0.28224400  0.73347400  1
  H  H262  1  0.69606800  0.58792300  0.85633900  1
  H  H263  1  0.63299200  0.54526900  0.87898700  1
  H  H264  1  0.74478600  0.48098700  0.81389100  1
  H  H265  1  0.60727900  0.45324400  0.81253300  1
  H  H266  1  0.66515600  0.41532600  0.86718200  1
  H  H267  1  0.66722900  0.40885400  0.77103600  1
  H  H268  1  0.63788600  0.54580300  0.73823300  1
  H  H269  1  0.69313500  0.49569300  0.69583900  1
  H  H270  1  0.71794800  0.56726200  0.73431200  1
  H  H271  1  0.41304400  0.69556400  0.85548600  1
  H  H272  1  0.45545700  0.63248800  0.87856500  1
  H  H273  1  0.52033400  0.74413600  0.81390600  1
  H  H274  1  0.54784600  0.60660400  0.81285700  1
  H  H275  1  0.58552100  0.66443800  0.86781700  1
  H  H276  1  0.59259600  0.66647200  0.77172900  1
  H  H277  1  0.45575000  0.63729300  0.73785000  1
  H  H278  1  0.50625500  0.69236900  0.69578600  1
  H  H279  1  0.43451200  0.71740000  0.73361400  1
  H  H280  1  0.30432200  0.41282100  0.85469500  1
  H  H281  1  0.36752900  0.45495900  0.87798700  1
  H  H282  1  0.25625000  0.52028100  0.81302600  1
  H  H283  1  0.39388500  0.54729900  0.81237200  1
  H  H284  1  0.33606400  0.58518700  0.86715400  1
  H  H285  1  0.33427000  0.59226000  0.77106300  1
  H  H286  1  0.36299000  0.45524000  0.73731000  1
  H  H287  1  0.30828300  0.50603200  0.69505000  1
  H  H288  1  0.28278700  0.43441200  0.73277000  1
  C  C1  1  0.00144400  0.37984500  0.49962500  1
  C  C2  1  0.37949300  0.99853400  0.49958800  1
  C  C3  1  0.99865400  0.62054400  0.50047100  1
  C  C4  1  0.62019200  0.00132600  0.50050500  1
  C  C5  1  0.50134600  0.87945500  0.00047200  1
  C  C6  1  0.87980800  0.49867500  0.00050500  1
  C  C7  1  0.49855600  0.12015500  0.99962400  1
  C  C8  1  0.12050700  0.50146700  0.99958800  1
  C  C9  1  0.00093800  0.50058600  0.35945200  1
  C  C10  1  0.50027800  0.00088100  0.35945200  1
  C  C11  1  0.99915500  0.49967200  0.64048300  1
  C  C12  1  0.49953400  0.99896600  0.64048200  1
  C  C13  1  0.49905800  0.99941300  0.85945200  1
  C  C14  1  0.99972400  0.49912200  0.85945200  1
  C  C15  1  0.50084900  0.00032800  0.14048200  1
  C  C16  1  0.00046400  0.50103600  0.14048200  1
  C  C17  1  0.00082000  0.50080700  0.28234600  1
  C  C18  1  0.50053400  0.00078200  0.28234600  1
  C  C19  1  0.99928500  0.49939700  0.71758800  1
  C  C20  1  0.49932900  0.99905100  0.71758800  1
  C  C21  1  0.49917600  0.99919300  0.78234600  1
  C  C22  1  0.99947000  0.49922000  0.78234700  1
  C  C23  1  0.50071900  0.00060400  0.21758800  1
  C  C24  1  0.00066800  0.50095000  0.21758800  1
  C  C25  1  0.03351000  0.27945500  0.55245100  1
  C  C26  1  0.27899600  0.96691700  0.55279400  1
  C  C27  1  0.96694600  0.72101600  0.55372800  1
  C  C28  1  0.72055600  0.03348400  0.55338500  1
  C  C29  1  0.03085300  0.72082300  0.44718000  1
  C  C30  1  0.27924400  0.03085200  0.44626900  1
  C  C31  1  0.96870600  0.27969100  0.44669700  1
  C  C32  1  0.72037600  0.96871000  0.44760500  1
  C  C33  1  0.53305600  0.77898300  0.05372600  1
  C  C34  1  0.77944500  0.46651700  0.05338700  1
  C  C35  1  0.46649200  0.22054500  0.05245300  1
  C  C36  1  0.22100500  0.53308500  0.05279200  1
  C  C37  1  0.53129100  0.22030800  0.94669400  1
  C  C38  1  0.77962300  0.53129100  0.94760600  1
  C  C39  1  0.46914500  0.77917600  0.94718100  1
  C  C40  1  0.22075600  0.46915000  0.94626700  1
  C  C41  1  0.02464200  0.21604600  0.55835300  1
  C  C42  1  0.21556900  0.97582200  0.55856500  1
  C  C43  1  0.97566400  0.78448600  0.55937800  1
  C  C44  1  0.78400700  0.02480300  0.55916600  1
  C  C45  1  0.02240600  0.78431900  0.44145100  1
  C  C46  1  0.21570700  0.02259400  0.44065500  1
  C  C47  1  0.97696300  0.21617900  0.44094600  1
  C  C48  1  0.78384800  0.97715600  0.44174100  1
  C  C49  1  0.52433800  0.71551400  0.05937600  1
  C  C50  1  0.71599300  0.47519800  0.05916800  1
  C  C51  1  0.47536000  0.28395300  0.05835500  1
  C  C52  1  0.28443200  0.52417900  0.05856300  1
  C  C53  1  0.52303400  0.28382000  0.94094400  1
  C  C54  1  0.71615100  0.52284400  0.94174300  1
  C  C55  1  0.47759200  0.71568000  0.94145200  1
  C  C56  1  0.28429200  0.47740800  0.94065200  1
  C  C57  1  0.00062600  0.18399300  0.49970000  1
  C  C58  1  0.18351600  0.99939500  0.49966200  1
  C  C59  1  0.99911500  0.81652400  0.50039700  1
  C  C60  1  0.81604700  0.00090800  0.50043500  1
  C  C61  1  0.50088500  0.68347500  0.00039600  1
  C  C62  1  0.68395300  0.49909200  0.00043700  1
  C  C63  1  0.49937300  0.31600600  0.99970000  1
  C  C64  1  0.31648400  0.50060600  0.99965900  1
  C  C65  1  0.88360500  0.00075100  0.50038400  1
  C  C66  1  0.00027600  0.11643600  0.49980700  1
  C  C67  1  0.11594300  0.99976300  0.49977300  1
  C  C68  1  0.99928900  0.88409900  0.50035100  1
  C  C69  1  0.38405700  0.50023600  0.99977000  1
  C  C70  1  0.50071200  0.61590000  0.00035000  1
  C  C71  1  0.61639400  0.49924800  0.00038600  1
  C  C72  1  0.49972400  0.38356300  0.99980700  1
  C  C73  1  0.00123900  0.31198900  0.49956700  1
  C  C74  1  0.31158100  0.99874300  0.49952100  1
  C  C75  1  0.99884100  0.68845700  0.50048600  1
  C  C76  1  0.68804800  0.00114400  0.50053200  1
  C  C77  1  0.50115900  0.81154200  0.00048600  1
  C  C78  1  0.81195200  0.49885800  0.00053300  1
  C  C79  1  0.49876100  0.18801000  0.99956700  1
  C  C80  1  0.18841900  0.50125900  0.99952000  1
  C  C81  1  0.07692700  0.31155800  0.60404900  1
  C  C82  1  0.14384400  0.29704700  0.58564800  1
  C  C83  1  0.16753400  0.33708600  0.52511500  1
  C  C84  1  0.18325700  0.30683400  0.65175600  1
  C  C85  1  0.31100100  0.92390900  0.60497000  1
  C  C86  1  0.29661200  0.85683200  0.58721000  1
  C  C87  1  0.33678000  0.83269600  0.52703900  1
  C  C88  1  0.30630000  0.81792900  0.65375100  1
  C  C89  1  0.92412900  0.68891600  0.60604000  1
  C  C90  1  0.85696100  0.70310600  0.58851100  1
  C  C91  1  0.83273300  0.66275900  0.52855900  1
  C  C92  1  0.81828500  0.69346100  0.65524700  1
  C  C93  1  0.68835600  0.07671300  0.60511800  1
  C  C94  1  0.70266600  0.14372300  0.58694300  1
  C  C95  1  0.66244500  0.16750300  0.52662600  1
  C  C96  1  0.69292200  0.18291300  0.65324600  1
  C  C97  1  0.07351700  0.68850700  0.39486800  1
  C  C98  1  0.14074300  0.70239900  0.41240400  1
  C  C99  1  0.16484600  0.66179900  0.47219100  1
  C  C100  1  0.17935500  0.69280500  0.34560900  1
  C  C101  1  0.31165800  0.07334700  0.39385300  1
  C  C102  1  0.29796500  0.14065500  0.41119500  1
  C  C103  1  0.33873600  0.16481700  0.47078700  1
  C  C104  1  0.30752900  0.17907000  0.34423300  1
  C  C105  1  0.92578100  0.31218300  0.39485600  1
  C  C106  1  0.85863800  0.29834300  0.41286100  1
  C  C107  1  0.83491800  0.33896800  0.47283400  1
  C  C108  1  0.81969100  0.30800400  0.34634100  1
  C  C109  1  0.68798300  0.92562100  0.39586600  1
  C  C110  1  0.70202500  0.85856000  0.41405500  1
  C  C111  1  0.66157200  0.83489500  0.47422000  1
  C  C112  1  0.69233500  0.81942300  0.34770000  1
  C  C113  1  0.57587400  0.81108400  0.10603800  1
  C  C114  1  0.64304200  0.79689500  0.08850800  1
  C  C115  1  0.66726900  0.83724300  0.02855500  1
  C  C116  1  0.68171900  0.80654100  0.15524300  1
  C  C117  1  0.81164500  0.42328800  0.10511900  1
  C  C118  1  0.79733500  0.35627900  0.08694400  1
  C  C119  1  0.83755500  0.33249800  0.02662700  1
  C  C120  1  0.80707900  0.31708800  0.15324700  1
  C  C121  1  0.42307600  0.18844100  0.10405200  1
  C  C122  1  0.35615800  0.20295300  0.08565200  1
  C  C123  1  0.33246700  0.16291500  0.02512000  1
  C  C124  1  0.31674600  0.19316700  0.15176100  1
  C  C125  1  0.18900000  0.57609200  0.10497000  1
  C  C126  1  0.20338800  0.64316900  0.08721100  1
  C  C127  1  0.16322000  0.66730600  0.02704000  1
  C  C128  1  0.19369900  0.68207100  0.15375300  1
  C  C129  1  0.57421400  0.18781600  0.89485200  1
  C  C130  1  0.64135800  0.20165800  0.91285500  1
  C  C131  1  0.66508000  0.16103300  0.97282800  1
  C  C132  1  0.68030400  0.19199700  0.84633400  1
  C  C133  1  0.81201500  0.57437900  0.89586600  1
  C  C134  1  0.79797300  0.64144000  0.91405400  1
  C  C135  1  0.83842700  0.66510700  0.97421900  1
  C  C136  1  0.80766400  0.68057600  0.84769800  1
  C  C137  1  0.42648100  0.81149300  0.89487000  1
  C  C138  1  0.35925500  0.79760200  0.91240600  1
  C  C139  1  0.33515200  0.83820300  0.97219400  1
  C  C140  1  0.32064300  0.80719600  0.84561100  1
  C  C141  1  0.18834000  0.42665600  0.89385200  1
  C  C142  1  0.20203400  0.35934800  0.91119300  1
  C  C143  1  0.16126300  0.33518500  0.97078600  1
  C  C144  1  0.19247000  0.32093200  0.84423200  1
  C  C145  1  0.04295700  0.18276600  0.62686800  1
  C  C146  1  0.99836100  0.19672200  0.68828000  1
  C  C147  1  0.94155200  0.15682800  0.68399200  1
  C  C148  1  0.03021100  0.18552400  0.75958500  1
  C  C149  1  0.18224200  0.95794200  0.62722300  1
  C  C150  1  0.19612200  0.00293000  0.68827200  1
  C  C151  1  0.15617600  0.05966600  0.68349500  1
  C  C152  1  0.18491400  0.97150000  0.75983100  1
  C  C153  1  0.95770900  0.81788200  0.62796700  1
  C  C154  1  0.00278400  0.80429600  0.68901700  1
  C  C155  1  0.05937200  0.84444100  0.68409500  1
  C  C156  1  0.97134100  0.81553800  0.76056100  1
  C  C157  1  0.81735700  0.04319900  0.62760800  1
  C  C158  1  0.80369800  0.99852000  0.68902800  1
  C  C159  1  0.84379000  0.94185700  0.68459700  1
  C  C160  1  0.81493200  0.03038700  0.76031500  1
  C  C161  1  0.04047800  0.81754400  0.37279500  1
  C  C162  1  0.99532200  0.80406000  0.31179300  1
  C  C163  1  0.93892100  0.84446700  0.31666100  1
  C  C164  1  0.02677900  0.81504700  0.24020200  1
  C  C165  1  0.18241600  0.04077000  0.37207700  1
  C  C166  1  0.19560800  0.99555400  0.31105000  1
  C  C167  1  0.15500600  0.93929700  0.31603100  1
  C  C168  1  0.18459000  0.02705100  0.23949000  1
  C  C169  1  0.95836800  0.18293400  0.37250900  1
  C  C170  1  0.00318300  0.19623400  0.31111500  1
  C  C171  1  0.05953600  0.15571300  0.31559900  1
  C  C172  1  0.97126800  0.18522100  0.23981000  1
  C  C173  1  0.81702600  0.95867200  0.37322100  1
  C  C174  1  0.80343300  0.00343300  0.31186000  1
  C  C175  1  0.84375900  0.05993000  0.31623600  1
  C  C176  1  0.81441100  0.97156600  0.24051800  1
  C  C177  1  0.54229300  0.68211800  0.12796500  1
  C  C178  1  0.49721700  0.69570600  0.18901400  1
  C  C179  1  0.44062800  0.65556200  0.18409200  1
  C  C180  1  0.52865800  0.68446500  0.26055900  1
  C  C181  1  0.68264500  0.45680300  0.12761100  1
  C  C182  1  0.69630400  0.50148300  0.18903000  1
  C  C183  1  0.65621200  0.55814700  0.18459600  1
  C  C184  1  0.68506700  0.46961700  0.26031700  1
  C  C185  1  0.45704400  0.31723400  0.12686900  1
  C  C186  1  0.50164000  0.30328000  0.18828200  1
  C  C187  1  0.55844900  0.34317600  0.18399400  1
  C  C188  1  0.46979000  0.31447900  0.25958700  1
  C  C189  1  0.31776000  0.54205900  0.12722000  1
  C  C190  1  0.30387900  0.49707200  0.18826900  1
  C  C191  1  0.34382700  0.44033700  0.18349500  1
  C  C192  1  0.31508500  0.52850300  0.25982800  1
  C  C193  1  0.54162900  0.31706600  0.87250800  1
  C  C194  1  0.49681400  0.30376900  0.81111300  1
  C  C195  1  0.44046200  0.34429200  0.81559700  1
  C  C196  1  0.52872900  0.31478200  0.73980800  1
  C  C197  1  0.68297200  0.54132800  0.87322300  1
  C  C198  1  0.69656500  0.49656800  0.81186200  1
  C  C199  1  0.65623700  0.44007200  0.81623500  1
  C  C200  1  0.68558900  0.52843600  0.74052000  1
  C  C201  1  0.45952100  0.68245600  0.87279500  1
  C  C202  1  0.50467700  0.69594300  0.81179400  1
  C  C203  1  0.56108000  0.65553800  0.81666300  1
  C  C204  1  0.47322200  0.68495600  0.74020300  1
  C  C205  1  0.31758200  0.45923200  0.87207300  1
  C  C206  1  0.30439000  0.50445000  0.81104700  1
  C  C207  1  0.34499000  0.56070700  0.81603200  1
  C  C208  1  0.31540900  0.47295500  0.73948700  1
  O  O1  1  0.94900700  0.40906600  0.50292100  1
  O  O2  1  0.40876000  0.05100500  0.50108200  1
  O  O3  1  0.05112600  0.59126500  0.50175800  1
  O  O4  1  0.59095700  0.94888500  0.50358800  1
  O  O5  1  0.94605200  0.59157300  0.49891800  1
  O  O6  1  0.40847400  0.94593200  0.49816300  1
  O  O7  1  0.05400800  0.40878200  0.49633100  1
  O  O8  1  0.59126800  0.05388900  0.49707200  1
  O  O9  1  0.44887400  0.90873400  0.00176000  1
  O  O10  1  0.90904300  0.55111700  0.00358700  1
  O  O11  1  0.55099200  0.09093300  0.00291900  1
  O  O12  1  0.09124000  0.44899600  0.00108300  1
  O  O13  1  0.44599100  0.09121700  0.99633200  1
  O  O14  1  0.90873200  0.44611300  0.99707100  1
  O  O15  1  0.55394800  0.90842600  0.99891800  1
  O  O16  1  0.09152600  0.55407000  0.99816500  1
  O  O17  1  0.94812700  0.50003600  0.39295300  1
  O  O18  1  0.49971100  0.05374700  0.39280200  1
  O  O19  1  0.05381800  0.50092800  0.39277100  1
  O  O20  1  0.50061400  0.94805500  0.39292200  1
  O  O21  1  0.94634600  0.50288400  0.60719200  1
  O  O22  1  0.49654200  0.94617300  0.60713200  1
  O  O23  1  0.05189800  0.49679100  0.60697900  1
  O  O24  1  0.50262700  0.05172600  0.60703700  1
  O  O25  1  0.44617800  0.99907100  0.89277200  1
  O  O26  1  0.99938600  0.55194700  0.89292300  1
  O  O27  1  0.55186900  0.99996300  0.89295200  1
  O  O28  1  0.00028900  0.44625600  0.89280100  1
  O  O29  1  0.44810500  0.00320800  0.10698000  1
  O  O30  1  0.99737200  0.44827600  0.10703700  1
  O  O31  1  0.55365700  0.99711500  0.10719100  1
  O  O32  1  0.00345700  0.55382800  0.10713200  1
  O  O33  1  0.91367000  0.96956000  0.54917900  1
  O  O34  1  0.96906300  0.08656000  0.54873700  1
  O  O35  1  0.08606700  0.03117300  0.54852600  1
  O  O36  1  0.03067700  0.91416200  0.54896800  1
  O  O37  1  0.91374200  0.03173700  0.45147800  1
  O  O38  1  0.96811100  0.91425800  0.45163400  1
  O  O39  1  0.08559700  0.96863000  0.45117300  1
  O  O40  1  0.03121700  0.08611200  0.45101700  1
  O  O41  1  0.41393200  0.46882600  0.04852400  1
  O  O42  1  0.46932300  0.58583600  0.04896700  1
  O  O43  1  0.58632900  0.53043900  0.04918000  1
  O  O44  1  0.53093600  0.41343900  0.04873700  1
  O  O45  1  0.41440400  0.53136900  0.95117000  1
  O  O46  1  0.46878300  0.41388600  0.95101600  1
  O  O47  1  0.58625800  0.46826100  0.95147900  1
  O  O48  1  0.53189000  0.58574100  0.95163300  1
