# generated using pymatgen
data_VH11(C3O)6
_symmetry_space_group_name_H-M   'P 1'
_cell_length_a   27.14270000
_cell_length_b   6.81800000
_cell_length_c   22.88860200
_cell_angle_alpha   90.00000000
_cell_angle_beta   101.12229900
_cell_angle_gamma   90.00000000
_symmetry_Int_Tables_number   1
_chemical_formula_structural   VH11(C3O)6
_chemical_formula_sum   'V4 H44 C72 O24'
_cell_volume   4156.18305927
_cell_formula_units_Z   4
loop_
 _symmetry_equiv_pos_site_id
 _symmetry_equiv_pos_as_xyz
  1  'x, y, z'
loop_
 _atom_site_type_symbol
 _atom_site_label
 _atom_site_symmetry_multiplicity
 _atom_site_fract_x
 _atom_site_fract_y
 _atom_site_fract_z
 _atom_site_occupancy
  V  V1  1  0.74874700  0.17470200  0.24025200  1
  V  V2  1  0.25124800  0.82167600  0.75973100  1
  V  V3  1  0.75125300  0.67470100  0.25974800  1
  V  V4  1  0.24875200  0.32167600  0.74026800  1
  H  H1  1  0.36288900  0.71825100  0.65607900  1
  H  H2  1  0.63703600  0.27813300  0.34373100  1
  H  H3  1  0.13711100  0.21825100  0.84392100  1
  H  H4  1  0.86296400  0.77813300  0.15626900  1
  H  H5  1  0.42631800  0.70387900  0.59356500  1
  H  H6  1  0.57361000  0.29270600  0.40625300  1
  H  H7  1  0.07368200  0.20387900  0.90643500  1
  H  H8  1  0.92639000  0.79270600  0.09374700  1
  H  H9  1  0.41150800  0.32194200  0.56439300  1
  H  H10  1  0.58844700  0.67470300  0.43556700  1
  H  H11  1  0.08849200  0.82194200  0.93560700  1
  H  H12  1  0.91155300  0.17470300  0.06443300  1
  H  H13  1  0.34884800  0.33406400  0.62748200  1
  H  H14  1  0.65108500  0.66237600  0.37247000  1
  H  H15  1  0.15115200  0.83406400  0.87251800  1
  H  H16  1  0.84891500  0.16237600  0.12753000  1
  H  H17  1  0.47584400  0.31553600  0.53650900  1
  H  H18  1  0.52407000  0.68119300  0.46334600  1
  H  H19  1  0.02415600  0.81553600  0.96349100  1
  H  H20  1  0.97593000  0.18119300  0.03665400  1
  H  H21  1  0.53880600  0.30415300  0.47469800  1
  H  H22  1  0.46113400  0.69256400  0.52516100  1
  H  H23  1  0.96119400  0.80415300  0.02530200  1
  H  H24  1  0.03886600  0.19256400  0.97483900  1
  H  H25  1  0.93392000  0.83969300  0.54132600  1
  H  H26  1  0.06604300  0.15747700  0.45863300  1
  H  H27  1  0.56608000  0.33969300  0.95867300  1
  H  H28  1  0.43395700  0.65747600  0.04136700  1
  H  H29  1  0.97355500  0.33188800  0.47077100  1
  H  H30  1  0.02634900  0.66523400  0.52920900  1
  H  H31  1  0.52644500  0.83188800  0.02922900  1
  H  H32  1  0.47365100  0.16523400  0.97079100  1
  H  H33  1  0.98989200  0.11274400  0.63939100  1
  H  H34  1  0.94331500  0.26014400  0.59168300  1
  H  H35  1  0.04733900  0.31560600  0.63018500  1
  H  H36  1  0.05688900  0.74061300  0.40775900  1
  H  H37  1  0.00882500  0.88475500  0.36056700  1
  H  H38  1  0.97718400  0.60050800  0.43110800  1
  H  H39  1  0.51010800  0.61274400  0.86060900  1
  H  H40  1  0.55668500  0.76014400  0.90831700  1
  H  H41  1  0.45266100  0.81560600  0.86981500  1
  H  H42  1  0.44311100  0.24061300  0.09224100  1
  H  H43  1  0.49117500  0.38475500  0.13943300  1
  H  H44  1  0.52281600  0.10050800  0.06889200  1
  C  C1  1  0.67230100  0.45748500  0.17220600  1
  C  C2  1  0.32771900  0.53893000  0.82777100  1
  C  C3  1  0.82769900  0.95748500  0.32779400  1
  C  C4  1  0.17228200  0.03892900  0.67222900  1
  C  C5  1  0.81340600  0.45660200  0.18498400  1
  C  C6  1  0.18662800  0.53977700  0.81506900  1
  C  C7  1  0.68659400  0.95660100  0.31501600  1
  C  C8  1  0.31337200  0.03977800  0.68493100  1
  C  C9  1  0.37346100  0.85118600  0.63588800  1
  C  C10  1  0.62646500  0.14525900  0.36395400  1
  C  C11  1  0.12653900  0.35118600  0.86411200  1
  C  C12  1  0.87353500  0.64525900  0.13604600  1
  C  C13  1  0.40942300  0.84346100  0.60004800  1
  C  C14  1  0.59050500  0.15309900  0.39979400  1
  C  C15  1  0.09057700  0.34346100  0.89995200  1
  C  C16  1  0.90949500  0.65309900  0.10020600  1
  C  C17  1  0.42426400  0.01197200  0.57397100  1
  C  C18  1  0.57567200  0.98465800  0.42591000  1
  C  C19  1  0.07573600  0.51197300  0.92602900  1
  C  C20  1  0.92432800  0.48465700  0.07409000  1
  C  C21  1  0.40177900  0.18785200  0.58445900  1
  C  C22  1  0.59815900  0.80873700  0.41546000  1
  C  C23  1  0.09822100  0.68785100  0.91554100  1
  C  C24  1  0.90184100  0.30873800  0.08454000  1
  C  C25  1  0.36579400  0.19505000  0.62006800  1
  C  C26  1  0.63413700  0.80142200  0.37984700  1
  C  C27  1  0.13420600  0.69505000  0.87993200  1
  C  C28  1  0.86586300  0.30142200  0.12015300  1
  C  C29  1  0.35133100  0.02731200  0.64626800  1
  C  C30  1  0.64860400  0.96910500  0.35362800  1
  C  C31  1  0.14866900  0.52731200  0.85373200  1
  C  C32  1  0.85139600  0.46910500  0.14637200  1
  C  C33  1  0.48561800  0.17495700  0.52037200  1
  C  C34  1  0.51431100  0.82177300  0.47949500  1
  C  C35  1  0.01438200  0.67495700  0.97962800  1
  C  C36  1  0.98568900  0.32177300  0.02050500  1
  C  C37  1  0.52180400  0.16852400  0.48491600  1
  C  C38  1  0.47813200  0.82820400  0.51495300  1
  C  C39  1  0.97819600  0.66852400  0.01508300  1
  C  C40  1  0.02186800  0.32820400  0.98504700  1
  C  C41  1  0.53675500  0.99182100  0.46394500  1
  C  C42  1  0.46318200  0.00489100  0.53593200  1
  C  C43  1  0.96324500  0.49182100  0.03605500  1
  C  C44  1  0.03681800  0.50489200  0.96406800  1
  C  C45  1  0.96399200  0.91023800  0.52209600  1
  C  C46  1  0.03598000  0.08698900  0.47789200  1
  C  C47  1  0.53600800  0.41023800  0.97790400  1
  C  C48  1  0.46402000  0.58698900  0.02210800  1
  C  C49  1  0.99197100  0.09538400  0.54579000  1
  C  C50  1  0.00800000  0.90184300  0.45419900  1
  C  C51  1  0.50802900  0.59538400  0.95421000  1
  C  C52  1  0.49200000  0.40184300  0.04580100  1
  C  C53  1  0.12653700  0.02313900  0.62612600  1
  C  C54  1  0.87343800  0.97344000  0.37389500  1
  C  C55  1  0.37346300  0.52313900  0.87387400  1
  C  C56  1  0.62656200  0.47344000  0.12610500  1
  C  C57  1  0.01425600  0.81729500  0.51656700  1
  C  C58  1  0.98571200  0.17989700  0.48341500  1
  C  C59  1  0.48574400  0.31729400  0.98343300  1
  C  C60  1  0.51428800  0.67989700  0.01658500  1
  C  C61  1  0.04154900  0.00403500  0.54054100  1
  C  C62  1  0.95842400  0.99314700  0.45945200  1
  C  C63  1  0.45845100  0.50403500  0.95945900  1
  C  C64  1  0.54157600  0.49314700  0.04054800  1
  C  C65  1  0.08832200  0.01354700  0.58766600  1
  C  C66  1  0.91165200  0.98332500  0.41234200  1
  C  C67  1  0.41167800  0.51354700  0.91233400  1
  C  C68  1  0.58834800  0.48332400  0.08765800  1
  C  C69  1  0.98281700  0.20882600  0.59955000  1
  C  C70  1  0.01714400  0.78876800  0.40036700  1
  C  C71  1  0.51718200  0.70882600  0.90045000  1
  C  C72  1  0.48285600  0.28876800  0.09963300  1
  O  O1  1  0.79976000  0.62556400  0.20734400  1
  O  O2  1  0.20026600  0.37080400  0.79270100  1
  O  O3  1  0.70024000  0.12556400  0.29265600  1
  O  O4  1  0.29973400  0.87080500  0.70729900  1
  O  O5  1  0.69254600  0.27803400  0.18057000  1
  O  O6  1  0.30746400  0.71835300  0.81939300  1
  O  O7  1  0.80745400  0.77803500  0.31943000  1
  O  O8  1  0.19253600  0.21835300  0.68060700  1
  O  O9  1  0.79410600  0.27809900  0.18951300  1
  O  O10  1  0.20591300  0.71828900  0.81050200  1
  O  O11  1  0.70589400  0.77810000  0.31048700  1
  O  O12  1  0.29408700  0.21828900  0.68949800  1
  O  O13  1  0.80867900  0.12548700  0.30222400  1
  O  O14  1  0.19129800  0.87088500  0.69778300  1
  O  O15  1  0.69132100  0.62548700  0.19777600  1
  O  O16  1  0.30870200  0.37088500  0.80221700  1
  O  O17  1  0.75440300  0.44716500  0.28650700  1
  O  O18  1  0.24559200  0.54921700  0.71351200  1
  O  O19  1  0.74559600  0.94716500  0.21349300  1
  O  O20  1  0.25440800  0.04921700  0.78648800  1
  O  O21  1  0.01495300  0.37004700  0.60908300  1
  O  O22  1  0.98578000  0.62517300  0.39164500  1
  O  O23  1  0.48504700  0.87004700  0.89091700  1
  O  O24  1  0.51422000  0.12517300  0.10835500  1
