# generated using pymatgen
data_VH8C18O5F3
_symmetry_space_group_name_H-M   'P 1'
_cell_length_a   27.14270000
_cell_length_b   6.81800000
_cell_length_c   22.88860200
_cell_angle_alpha   90.00000000
_cell_angle_beta   101.12229900
_cell_angle_gamma   90.00000000
_symmetry_Int_Tables_number   1
_chemical_formula_structural   VH8C18O5F3
_chemical_formula_sum   'V4 H32 C72 O20 F12'
_cell_volume   4156.18305927
_cell_formula_units_Z   4
loop_
 _symmetry_equiv_pos_site_id
 _symmetry_equiv_pos_as_xyz
  1  'x, y, z'
loop_
 _atom_site_type_symbol
 _atom_site_label
 _atom_site_symmetry_multiplicity
 _atom_site_fract_x
 _atom_site_fract_y
 _atom_site_fract_z
 _atom_site_occupancy
  V  V1  1  0.74874800  0.17673500  0.24024300  1
  V  V2  1  0.25125200  0.82326500  0.75975700  1
  V  V3  1  0.75125200  0.67673500  0.25975700  1
  V  V4  1  0.24874800  0.32326600  0.74024300  1
  H  H1  1  0.36398100  0.72072300  0.65754300  1
  H  H2  1  0.63601900  0.27927700  0.34245700  1
  H  H3  1  0.13601900  0.22072300  0.84245700  1
  H  H4  1  0.86398100  0.77927700  0.15754300  1
  H  H5  1  0.42756600  0.70654400  0.59525600  1
  H  H6  1  0.57243400  0.29345600  0.40474300  1
  H  H7  1  0.07243400  0.20654400  0.90474300  1
  H  H8  1  0.92756600  0.79345600  0.09525600  1
  H  H9  1  0.41058800  0.32269200  0.56328400  1
  H  H10  1  0.58941200  0.67730800  0.43671600  1
  H  H11  1  0.08941200  0.82269200  0.93671600  1
  H  H12  1  0.91058800  0.17730800  0.06328400  1
  H  H13  1  0.34797900  0.33472400  0.62637400  1
  H  H14  1  0.65202100  0.66527600  0.37362600  1
  H  H15  1  0.15202100  0.83472400  0.87362600  1
  H  H16  1  0.84797900  0.16527600  0.12637400  1
  H  H17  1  0.47468400  0.31778200  0.53490400  1
  H  H18  1  0.52531600  0.68221800  0.46509600  1
  H  H19  1  0.02531600  0.81778200  0.96509600  1
  H  H20  1  0.97468400  0.18221800  0.03490400  1
  H  H21  1  0.53744700  0.30640500  0.47291900  1
  H  H22  1  0.46255300  0.69359500  0.52708100  1
  H  H23  1  0.96255300  0.80640500  0.02708100  1
  H  H24  1  0.03744700  0.19359500  0.97291900  1
  H  H25  1  0.93284700  0.85557100  0.54276700  1
  H  H26  1  0.06715300  0.14442900  0.45723200  1
  H  H27  1  0.56715300  0.35557100  0.95723200  1
  H  H28  1  0.43284700  0.64442900  0.04276700  1
  H  H29  1  0.97581400  0.33254500  0.46731000  1
  H  H30  1  0.02418600  0.66745600  0.53269000  1
  H  H31  1  0.52418600  0.83254500  0.03269000  1
  H  H32  1  0.47581400  0.16745600  0.96731000  1
  C  C1  1  0.67231300  0.45950700  0.17218700  1
  C  C2  1  0.32768700  0.54049200  0.82781300  1
  C  C3  1  0.82768700  0.95950700  0.32781300  1
  C  C4  1  0.17231300  0.04049300  0.67218700  1
  C  C5  1  0.81341400  0.45865100  0.18499800  1
  C  C6  1  0.18658600  0.54134900  0.81500100  1
  C  C7  1  0.68658600  0.95865100  0.31500100  1
  C  C8  1  0.31341400  0.04134900  0.68499800  1
  C  C9  1  0.37411300  0.85324900  0.63677400  1
  C  C10  1  0.62588700  0.14675100  0.36322500  1
  C  C11  1  0.12588700  0.35324900  0.86322600  1
  C  C12  1  0.87411300  0.64675100  0.13677400  1
  C  C13  1  0.41016100  0.84561900  0.60105300  1
  C  C14  1  0.58983900  0.15438100  0.39894600  1
  C  C15  1  0.08983900  0.34562000  0.89894600  1
  C  C16  1  0.91016100  0.65438100  0.10105400  1
  C  C17  1  0.42441800  0.01363000  0.57420200  1
  C  C18  1  0.57558200  0.98637000  0.42579800  1
  C  C19  1  0.07558200  0.51363000  0.92579800  1
  C  C20  1  0.92441800  0.48637000  0.07420200  1
  C  C21  1  0.40134300  0.18897700  0.58392800  1
  C  C22  1  0.59865700  0.81102300  0.41607200  1
  C  C23  1  0.09865700  0.68897700  0.91607200  1
  C  C24  1  0.90134300  0.31102300  0.08392800  1
  C  C25  1  0.36536000  0.19612500  0.61953400  1
  C  C26  1  0.63464000  0.80387500  0.38046600  1
  C  C27  1  0.13464000  0.69612500  0.88046600  1
  C  C28  1  0.86536000  0.30387500  0.11953400  1
  C  C29  1  0.35140500  0.02883900  0.64638700  1
  C  C30  1  0.64859500  0.97116100  0.35361300  1
  C  C31  1  0.14859500  0.52883900  0.85361300  1
  C  C32  1  0.85140500  0.47116000  0.14638700  1
  C  C33  1  0.48498100  0.17686900  0.51952200  1
  C  C34  1  0.51501900  0.82313200  0.48047800  1
  C  C35  1  0.01501900  0.67686900  0.98047800  1
  C  C36  1  0.98498100  0.32313200  0.01952200  1
  C  C37  1  0.52107300  0.17043300  0.48395000  1
  C  C38  1  0.47892700  0.82956700  0.51605000  1
  C  C39  1  0.97892700  0.67043300  0.01605000  1
  C  C40  1  0.02107300  0.32956700  0.98395000  1
  C  C41  1  0.53670100  0.99346500  0.46388800  1
  C  C42  1  0.46329900  0.00653500  0.53611200  1
  C  C43  1  0.96329900  0.49346500  0.03611200  1
  C  C44  1  0.03670100  0.50653500  0.96388800  1
  C  C45  1  0.96340300  0.91935600  0.52288400  1
  C  C46  1  0.03659700  0.08064400  0.47711600  1
  C  C47  1  0.53659700  0.41935600  0.97711600  1
  C  C48  1  0.46340300  0.58064400  0.02288400  1
  C  C49  1  0.99259600  0.10370300  0.54475800  1
  C  C50  1  0.00740400  0.89629700  0.45524200  1
  C  C51  1  0.50740400  0.60370300  0.95524200  1
  C  C52  1  0.49259600  0.39629700  0.04475800  1
  C  C53  1  0.12657100  0.02460400  0.62608100  1
  C  C54  1  0.87342900  0.97539600  0.37391900  1
  C  C55  1  0.37342900  0.52460400  0.87391900  1
  C  C56  1  0.62657100  0.47539600  0.12608100  1
  C  C57  1  0.01304600  0.81916700  0.51842000  1
  C  C58  1  0.98695400  0.18083300  0.48158000  1
  C  C59  1  0.48695400  0.31916700  0.98158000  1
  C  C60  1  0.51304600  0.68083300  0.01842000  1
  C  C61  1  0.04155900  0.00525000  0.54055300  1
  C  C62  1  0.95844100  0.99475000  0.45944700  1
  C  C63  1  0.45844100  0.50525000  0.95944700  1
  C  C64  1  0.54155900  0.49475000  0.04055300  1
  C  C65  1  0.08835000  0.01488500  0.58764000  1
  C  C66  1  0.91165000  0.98511500  0.41236000  1
  C  C67  1  0.41165000  0.51488500  0.91236000  1
  C  C68  1  0.58835000  0.48511500  0.08764000  1
  C  C69  1  0.98412200  0.22501400  0.59734000  1
  C  C70  1  0.01587800  0.77498600  0.40266000  1
  C  C71  1  0.51587800  0.72501400  0.90266000  1
  C  C72  1  0.48412200  0.27498600  0.09734000  1
  O  O1  1  0.79977300  0.62759700  0.20736900  1
  O  O2  1  0.20022700  0.37240300  0.79263100  1
  O  O3  1  0.70022700  0.12759700  0.29263100  1
  O  O4  1  0.29977300  0.87240300  0.70736900  1
  O  O5  1  0.69255600  0.28006100  0.18054800  1
  O  O6  1  0.30744400  0.71993900  0.81945100  1
  O  O7  1  0.80744400  0.78006100  0.31945100  1
  O  O8  1  0.19255600  0.21993900  0.68054800  1
  O  O9  1  0.79411300  0.28013800  0.18951500  1
  O  O10  1  0.20588700  0.71986100  0.81048500  1
  O  O11  1  0.70588700  0.78013800  0.31048500  1
  O  O12  1  0.29411300  0.21986200  0.68951500  1
  O  O13  1  0.80867200  0.12751300  0.30222900  1
  O  O14  1  0.19132800  0.87248700  0.69777100  1
  O  O15  1  0.69132800  0.62751300  0.19777100  1
  O  O16  1  0.30867200  0.37248700  0.80222900  1
  O  O17  1  0.75439700  0.44920000  0.28651600  1
  O  O18  1  0.24560300  0.55080000  0.71348500  1
  O  O19  1  0.74560300  0.94920000  0.21348400  1
  O  O20  1  0.25439700  0.05080000  0.78651500  1
  F  F1  1  0.93540100  0.29474100  0.58657300  1
  F  F2  1  0.01719700  0.38118900  0.60545400  1
  F  F3  1  0.99202300  0.10985900  0.64797800  1
  F  F4  1  0.06459900  0.70525900  0.41342700  1
  F  F5  1  0.00797700  0.89014100  0.35202200  1
  F  F6  1  0.98280300  0.61881100  0.39454600  1
  F  F7  1  0.56459900  0.79474100  0.91342700  1
  F  F8  1  0.48280300  0.88118900  0.89454500  1
  F  F9  1  0.50797700  0.60985900  0.85202200  1
  F  F10  1  0.43540100  0.20525900  0.08657300  1
  F  F11  1  0.49202300  0.39014100  0.14797800  1
  F  F12  1  0.51719700  0.11881100  0.10545400  1
