# generated using pymatgen
data_VH21(C4O)5
_symmetry_space_group_name_H-M   'P 1'
_cell_length_a   21.35460000
_cell_length_b   6.81800000
_cell_length_c   19.88190000
_cell_angle_alpha   90.00000000
_cell_angle_beta   102.97830800
_cell_angle_gamma   90.00000000
_symmetry_Int_Tables_number   1
_chemical_formula_structural   VH21(C4O)5
_chemical_formula_sum   'V4 H84 C80 O20'
_cell_volume   2820.77329169
_cell_formula_units_Z   4
loop_
 _symmetry_equiv_pos_site_id
 _symmetry_equiv_pos_as_xyz
  1  'x, y, z'
loop_
 _atom_site_type_symbol
 _atom_site_label
 _atom_site_symmetry_multiplicity
 _atom_site_fract_x
 _atom_site_fract_y
 _atom_site_fract_z
 _atom_site_occupancy
  V  V1  1  0.74730100  0.21056100  0.23768200  1
  V  V2  1  0.25202900  0.78239900  0.76204500  1
  V  V3  1  0.75270000  0.71056100  0.26231900  1
  V  V4  1  0.24797000  0.28239900  0.73795500  1
  H  H1  1  0.52967600  0.31165300  0.45618000  1
  H  H2  1  0.46999500  0.67952700  0.54337500  1
  H  H3  1  0.97032400  0.81165500  0.04382000  1
  H  H4  1  0.03000500  0.17952700  0.95662500  1
  H  H5  1  0.45372700  0.30182500  0.53248000  1
  H  H6  1  0.54595500  0.68939000  0.46708200  1
  H  H7  1  0.04627200  0.80182600  0.96751800  1
  H  H8  1  0.95404600  0.18939400  0.03291900  1
  H  H9  1  0.88246500  0.82079300  0.46142200  1
  H  H10  1  0.11846300  0.17834300  0.54000000  1
  H  H11  1  0.61753600  0.32079400  0.03857800  1
  H  H12  1  0.38153700  0.67834400  0.96000000  1
  H  H13  1  0.98923500  0.36002000  0.31708400  1
  H  H14  1  0.90560500  0.30524900  0.29705600  1
  H  H15  1  0.01413200  0.03301800  0.27522200  1
  H  H16  1  0.86729000  0.98476400  0.24018000  1
  H  H17  1  0.92403700  0.85073700  0.30563000  1
  H  H18  1  0.92443600  0.81931500  0.21534600  1
  H  H19  1  0.90523000  0.24295300  0.17374700  1
  H  H20  1  0.96592300  0.08557000  0.15189600  1
  H  H21  1  0.98877800  0.31825800  0.19435200  1
  H  H22  1  0.00178000  0.81478100  0.70828100  1
  H  H23  1  0.08815200  0.81500800  0.72292500  1
  H  H24  1  0.01640300  0.50144200  0.62724900  1
  H  H25  1  0.14367400  0.57325300  0.72536900  1
  H  H26  1  0.12510500  0.46115500  0.64083700  1
  H  H27  1  0.11284400  0.32554100  0.71566700  1
  H  H28  1  0.03807500  0.50079200  0.78549600  1
  H  H29  1  0.01117300  0.29534200  0.72861500  1
  H  H30  1  0.96084200  0.51047600  0.72507100  1
  H  H31  1  0.51076500  0.86002100  0.18291600  1
  H  H32  1  0.59439500  0.80524900  0.20294500  1
  H  H33  1  0.48586800  0.53301800  0.22477800  1
  H  H34  1  0.63271000  0.48476300  0.25982000  1
  H  H35  1  0.57596300  0.35073700  0.19436900  1
  H  H36  1  0.57556400  0.31931300  0.28465300  1
  H  H37  1  0.59477100  0.74295300  0.32625300  1
  H  H38  1  0.53407800  0.58556800  0.34810300  1
  H  H39  1  0.51122300  0.81825700  0.30564800  1
  H  H40  1  0.49822000  0.31478000  0.79171900  1
  H  H41  1  0.41184800  0.31500800  0.77707400  1
  H  H42  1  0.48359700  0.00144200  0.87275100  1
  H  H43  1  0.35632600  0.07325300  0.77463000  1
  H  H44  1  0.37489500  0.96115500  0.85916200  1
  H  H45  1  0.38715600  0.82554100  0.78433300  1
  H  H46  1  0.46192500  0.00079000  0.71450400  1
  H  H47  1  0.48882700  0.79534000  0.77138600  1
  H  H48  1  0.53915900  0.01047500  0.77492900  1
  H  H49  1  0.94131000  0.66129200  0.63392700  1
  H  H50  1  0.90004600  0.65483500  0.54489700  1
  H  H51  1  0.90481200  0.99282300  0.64915600  1
  H  H52  1  0.81831100  0.95411400  0.50418500  1
  H  H53  1  0.89227300  0.09753400  0.52418700  1
  H  H54  1  0.82580400  0.15900900  0.56250200  1
  H  H55  1  0.79724400  0.70796500  0.58273700  1
  H  H56  1  0.79041500  0.90797500  0.64061400  1
  H  H57  1  0.84267700  0.70222500  0.67135000  1
  H  H58  1  0.07299500  0.24277300  0.35866600  1
  H  H59  1  0.11933600  0.21046500  0.44321300  1
  H  H60  1  0.01806600  0.53519500  0.40005300  1
  H  H61  1  0.12286400  0.47420700  0.53201700  1
  H  H62  1  0.03803000  0.42442700  0.52342200  1
  H  H63  1  0.06524100  0.67243700  0.51411300  1
  H  H64  1  0.16564000  0.54368700  0.43090100  1
  H  H65  1  0.11280000  0.75424900  0.41324000  1
  H  H66  1  0.11213200  0.57202100  0.34681800  1
  H  H67  1  0.55869000  0.16129200  0.86607400  1
  H  H68  1  0.59995400  0.15483500  0.95510300  1
  H  H69  1  0.59518800  0.49282300  0.85084400  1
  H  H70  1  0.68169000  0.45411400  0.99581500  1
  H  H71  1  0.60772700  0.59753300  0.97581300  1
  H  H72  1  0.67419600  0.65900900  0.93749800  1
  H  H73  1  0.70275600  0.20796400  0.91726300  1
  H  H74  1  0.70958500  0.40797400  0.85938600  1
  H  H75  1  0.65732300  0.20222400  0.82865000  1
  H  H76  1  0.42700500  0.74277400  0.14133300  1
  H  H77  1  0.38066400  0.71046600  0.05678700  1
  H  H78  1  0.48193400  0.03519500  0.09994700  1
  H  H79  1  0.37713700  0.97420700  0.96798400  1
  H  H80  1  0.46197000  0.92442900  0.97657800  1
  H  H81  1  0.43475900  0.17243800  0.98588800  1
  H  H82  1  0.33436000  0.04368700  0.06909900  1
  H  H83  1  0.38720100  0.25425000  0.08676000  1
  H  H84  1  0.38786900  0.07202100  0.15318200  1
  C  C1  1  0.64818000  0.49497800  0.16131400  1
  C  C2  1  0.35189000  0.49916000  0.83869400  1
  C  C3  1  0.85182000  0.99498200  0.33868600  1
  C  C4  1  0.14811200  0.99915900  0.66130700  1
  C  C5  1  0.82758900  0.49243300  0.17335700  1
  C  C6  1  0.17282400  0.49984100  0.82719700  1
  C  C7  1  0.67241200  0.99243200  0.32664200  1
  C  C8  1  0.32717600  0.99983600  0.67280300  1
  C  C9  1  0.47376200  0.16635000  0.51837600  1
  C  C10  1  0.52593300  0.82486500  0.48120800  1
  C  C11  1  0.02623800  0.66635000  0.98162400  1
  C  C12  1  0.97406700  0.32486400  0.01879300  1
  C  C13  1  0.45611600  0.98994600  0.54365900  1
  C  C14  1  0.54358500  0.00128600  0.45593500  1
  C  C15  1  0.04388400  0.48994600  0.95634000  1
  C  C16  1  0.95641600  0.50128200  0.04406500  1
  C  C17  1  0.48280500  0.81918500  0.52448900  1
  C  C18  1  0.51688300  0.17202100  0.47509400  1
  C  C19  1  0.01719500  0.31918400  0.97551100  1
  C  C20  1  0.98311500  0.67202000  0.02490600  1
  C  C21  1  0.41063500  0.98530200  0.58931500  1
  C  C22  1  0.58905100  0.00605900  0.41026600  1
  C  C23  1  0.08936400  0.48529900  0.91068500  1
  C  C24  1  0.91094900  0.50605600  0.08973400  1
  C  C25  1  0.62698100  0.00484200  0.37221000  1
  C  C26  1  0.37268000  0.98680800  0.62734200  1
  C  C27  1  0.87302000  0.50485100  0.12779100  1
  C  C28  1  0.12732000  0.48680900  0.87265700  1
  C  C29  1  0.91201500  0.01756700  0.39205700  1
  C  C30  1  0.08799800  0.97968100  0.60760600  1
  C  C31  1  0.58798400  0.51756900  0.10794300  1
  C  C32  1  0.41200200  0.47968300  0.89239500  1
  C  C33  1  0.98102400  0.85208300  0.56927900  1
  C  C34  1  0.01786600  0.15488700  0.43093000  1
  C  C35  1  0.51897800  0.35208000  0.93072000  1
  C  C36  1  0.48213500  0.65488200  0.06906800  1
  C  C37  1  0.03817000  0.86378000  0.61870400  1
  C  C38  1  0.96078400  0.13893000  0.38118100  1
  C  C39  1  0.46182900  0.36377600  0.88129400  1
  C  C40  1  0.53921600  0.63893600  0.11882200  1
  C  C41  1  0.08013600  0.08244300  0.54626500  1
  C  C42  1  0.92019900  0.91727500  0.45381900  1
  C  C43  1  0.41986400  0.58244200  0.95373400  1
  C  C44  1  0.57980200  0.41727200  0.04617900  1
  C  C45  1  0.02471300  0.06017800  0.49421900  1
  C  C46  1  0.97520300  0.94314700  0.50573800  1
  C  C47  1  0.47528700  0.56017900  0.00578100  1
  C  C48  1  0.52479700  0.44315100  0.99426600  1
  C  C49  1  0.95397500  0.23940800  0.31329100  1
  C  C50  1  0.96458900  0.09214300  0.25986100  1
  C  C51  1  0.91687000  0.92567400  0.25497300  1
  C  C52  1  0.95557100  0.19155400  0.19030600  1
  C  C53  1  0.04314700  0.76832400  0.68690700  1
  C  C54  1  0.04271400  0.54683500  0.67952700  1
  C  C55  1  0.11079800  0.47179400  0.69099600  1
  C  C56  1  0.01107400  0.45742900  0.73325100  1
  C  C57  1  0.54602500  0.73940200  0.18670600  1
  C  C58  1  0.53541100  0.59214300  0.24014000  1
  C  C59  1  0.58313000  0.42567200  0.24502600  1
  C  C60  1  0.54443000  0.69155300  0.30969400  1
  C  C61  1  0.45685400  0.26832600  0.81309500  1
  C  C62  1  0.45728600  0.04683300  0.82047300  1
  C  C63  1  0.38920200  0.97179300  0.80900500  1
  C  C64  1  0.48892600  0.95742900  0.76674900  1
  C  C65  1  0.92467900  0.75206500  0.58724600  1
  C  C66  1  0.87867500  0.90287800  0.60528000  1
  C  C67  1  0.85223500  0.03654200  0.54474300  1
  C  C68  1  0.82356600  0.79828300  0.62641800  1
  C  C69  1  0.07257100  0.26582800  0.41371900  1
  C  C70  1  0.06605000  0.48253200  0.42776600  1
  C  C71  1  0.07353500  0.51539400  0.50446800  1
  C  C72  1  0.11760200  0.59568400  0.40302700  1
  C  C73  1  0.57532100  0.25206500  0.91275400  1
  C  C74  1  0.62132500  0.40287700  0.89472000  1
  C  C75  1  0.64776500  0.53654100  0.95525700  1
  C  C76  1  0.67643400  0.29828200  0.87358300  1
  C  C77  1  0.42742800  0.76583000  0.08628200  1
  C  C78  1  0.43395100  0.98253100  0.07223400  1
  C  C79  1  0.42646600  0.01539400  0.99553200  1
  C  C80  1  0.38239800  0.09568500  0.09697400  1
  O  O1  1  0.81170400  0.66089900  0.20059800  1
  O  O2  1  0.18909100  0.33181700  0.79986000  1
  O  O3  1  0.68829400  0.16090000  0.29940200  1
  O  O4  1  0.31090800  0.83181900  0.70014100  1
  O  O5  1  0.67331200  0.31455100  0.16911700  1
  O  O6  1  0.32606600  0.67857100  0.83057500  1
  O  O7  1  0.82668900  0.81455100  0.33088300  1
  O  O8  1  0.17393400  0.17856700  0.66942400  1
  O  O9  1  0.80246400  0.31444100  0.17817000  1
  O  O10  1  0.19710300  0.67869500  0.82183200  1
  O  O11  1  0.69753600  0.81444500  0.32183000  1
  O  O12  1  0.30289800  0.17870000  0.67816900  1
  O  O13  1  0.82616500  0.16087400  0.30870800  1
  O  O14  1  0.17303600  0.83208100  0.69115600  1
  O  O15  1  0.67383600  0.66087400  0.19129100  1
  O  O16  1  0.32696400  0.33207400  0.80884200  1
  O  O17  1  0.75780600  0.48270400  0.29333900  1
  O  O18  1  0.24280600  0.51035800  0.70702000  1
  O  O19  1  0.74219400  0.98270400  0.20666000  1
  O  O20  1  0.25719500  0.01035600  0.79297900  1
