# generated using pymatgen
data_VH14C29Cl2O5
_symmetry_space_group_name_H-M   'P 1'
_cell_length_a   25.04780000
_cell_length_b   6.81800000
_cell_length_c   21.15369800
_cell_angle_alpha   90.00000000
_cell_angle_beta   100.24390600
_cell_angle_gamma   90.00000000
_symmetry_Int_Tables_number   1
_chemical_formula_structural   VH14C29Cl2O5
_chemical_formula_sum   'V4 H56 C116 Cl8 O20'
_cell_volume   3554.95652689
_cell_formula_units_Z   4
loop_
 _symmetry_equiv_pos_site_id
 _symmetry_equiv_pos_as_xyz
  1  'x, y, z'
loop_
 _atom_site_type_symbol
 _atom_site_label
 _atom_site_symmetry_multiplicity
 _atom_site_fract_x
 _atom_site_fract_y
 _atom_site_fract_z
 _atom_site_occupancy
  V  V1  1  0.74891900  0.20103300  0.23926900  1
  V  V2  1  0.25137500  0.84635700  0.76033100  1
  V  V3  1  0.75108100  0.70103400  0.26073000  1
  V  V4  1  0.24862500  0.34635700  0.73966900  1
  H  H1  1  0.42866000  0.34449600  0.54787100  1
  H  H2  1  0.57174500  0.70561200  0.45279000  1
  H  H3  1  0.07134000  0.84449600  0.95212900  1
  H  H4  1  0.92825500  0.20561200  0.04721000  1
  H  H5  1  0.35962500  0.35918000  0.61689800  1
  H  H6  1  0.64086700  0.69054800  0.38391000  1
  H  H7  1  0.14037500  0.85918000  0.88310200  1
  H  H8  1  0.85913300  0.19054800  0.11609000  1
  H  H9  1  0.37449600  0.74317800  0.64835100  1
  H  H10  1  0.62573000  0.30613900  0.35166200  1
  H  H11  1  0.12550400  0.24317800  0.85164900  1
  H  H12  1  0.87427100  0.80613900  0.14833900  1
  H  H13  1  0.44368300  0.72845900  0.57923500  1
  H  H14  1  0.55643000  0.32122500  0.42064400  1
  H  H15  1  0.05631700  0.22846000  0.92076600  1
  H  H16  1  0.94357000  0.82122500  0.07935600  1
  H  H17  1  0.93597100  0.99985800  0.31535100  1
  H  H18  1  0.06481400  0.08358000  0.68199600  1
  H  H19  1  0.56402900  0.49985800  0.18464900  1
  H  H20  1  0.43518600  0.58358000  0.81800400  1
  H  H21  1  0.88429600  0.04214600  0.57280100  1
  H  H22  1  0.11654300  0.98815000  0.42574400  1
  H  H23  1  0.61570400  0.54214600  0.92719900  1
  H  H24  1  0.38345700  0.48815000  0.07425600  1
  H  H25  1  0.76854500  0.77789200  0.58389600  1
  H  H26  1  0.68913200  0.94829400  0.52313500  1
  H  H27  1  0.69781100  0.13771700  0.42652000  1
  H  H28  1  0.78593600  0.15988600  0.39140200  1
  H  H29  1  0.23228900  0.71421900  0.42968000  1
  H  H30  1  0.31048100  0.92020100  0.47465100  1
  H  H31  1  0.30111400  0.17207500  0.55516400  1
  H  H32  1  0.21385600  0.22019100  0.58978400  1
  H  H33  1  0.73145500  0.27789200  0.91610400  1
  H  H34  1  0.81086800  0.44829400  0.97686500  1
  H  H35  1  0.80218900  0.63771700  0.07348000  1
  H  H36  1  0.71406400  0.65988600  0.10859800  1
  H  H37  1  0.26771100  0.21421900  0.07032100  1
  H  H38  1  0.18951900  0.42020100  0.02534900  1
  H  H39  1  0.19888700  0.67207500  0.94483600  1
  H  H40  1  0.28614400  0.72019100  0.91021600  1
  H  H41  1  0.88511900  0.24415800  0.76778900  1
  H  H42  1  0.94803900  0.06081600  0.84923700  1
  H  H43  1  0.02016800  0.85979400  0.81694200  1
  H  H44  1  0.02944400  0.84146600  0.70366100  1
  H  H45  1  0.11687600  0.07688600  0.22282500  1
  H  H46  1  0.05292000  0.86295800  0.15266600  1
  H  H47  1  0.97970000  0.69696400  0.19535400  1
  H  H48  1  0.97039000  0.74397600  0.30775500  1
  H  H49  1  0.61488100  0.74415800  0.73221100  1
  H  H50  1  0.55196100  0.56081600  0.65076300  1
  H  H51  1  0.47983200  0.35979400  0.68305900  1
  H  H52  1  0.47055600  0.34146600  0.79633900  1
  H  H53  1  0.38312500  0.57688600  0.27717500  1
  H  H54  1  0.44708000  0.36295800  0.34733400  1
  H  H55  1  0.52030000  0.19696400  0.30464600  1
  H  H56  1  0.52961000  0.24397600  0.19224500  1
  C  C1  1  0.66712000  0.48358200  0.16638300  1
  C  C2  1  0.33233200  0.56327600  0.83452400  1
  C  C3  1  0.83288100  0.98358200  0.33361800  1
  C  C4  1  0.16766800  0.06327600  0.66547600  1
  C  C5  1  0.81972800  0.48348800  0.17954200  1
  C  C6  1  0.17994100  0.56472900  0.82007200  1
  C  C7  1  0.68027200  0.98348800  0.32045800  1
  C  C8  1  0.32005900  0.06472900  0.67992800  1
  C  C9  1  0.41700000  0.21148300  0.56967700  1
  C  C10  1  0.58334900  0.83844700  0.43083200  1
  C  C11  1  0.08300100  0.71148300  0.93032300  1
  C  C12  1  0.91665100  0.33844700  0.06916800  1
  C  C13  1  0.37781800  0.21973000  0.60880800  1
  C  C14  1  0.62256100  0.82998000  0.39176200  1
  C  C15  1  0.12218200  0.71973000  0.89119200  1
  C  C16  1  0.87743900  0.32998000  0.10823900  1
  C  C17  1  0.36183000  0.05237700  0.63769600  1
  C  C18  1  0.63848300  0.99701100  0.36264200  1
  C  C19  1  0.13817100  0.55237700  0.86230400  1
  C  C20  1  0.86151700  0.49701100  0.13735800  1
  C  C21  1  0.38608300  0.87601500  0.62637700  1
  C  C22  1  0.61416400  0.17345700  0.37373800  1
  C  C23  1  0.11391700  0.37601600  0.87362300  1
  C  C24  1  0.88583600  0.67345700  0.12626200  1
  C  C25  1  0.42535400  0.86775600  0.58719100  1
  C  C26  1  0.57484300  0.18193800  0.41287400  1
  C  C27  1  0.07464600  0.36775600  0.91280900  1
  C  C28  1  0.92515800  0.68193800  0.08712700  1
  C  C29  1  0.44134000  0.03550600  0.55837400  1
  C  C30  1  0.55891200  0.01442000  0.44188300  1
  C  C31  1  0.05866100  0.53550600  0.94162600  1
  C  C32  1  0.94108800  0.51442000  0.05811700  1
  C  C33  1  0.48282500  0.02787900  0.51726800  1
  C  C34  1  0.51741800  0.02221200  0.48297600  1
  C  C35  1  0.01717500  0.52787900  0.98273200  1
  C  C36  1  0.98258200  0.52221200  0.01702400  1
  C  C37  1  0.93331600  0.99639200  0.36573700  1
  C  C38  1  0.06754800  0.05429700  0.63250700  1
  C  C39  1  0.56668400  0.49639200  0.13426300  1
  C  C40  1  0.43245200  0.55429700  0.86749300  1
  C  C41  1  0.88258900  0.99900800  0.38335600  1
  C  C42  1  0.11834000  0.04611400  0.61518300  1
  C  C43  1  0.61741100  0.49900800  0.11664500  1
  C  C44  1  0.38166000  0.54611400  0.88481700  1
  C  C45  1  0.87968800  0.99849700  0.44823500  1
  C  C46  1  0.12144000  0.01668700  0.55085100  1
  C  C47  1  0.62031200  0.49849600  0.05176500  1
  C  C48  1  0.37856100  0.51668700  0.94914900  1
  C  C49  1  0.92670500  0.00948000  0.49426600  1
  C  C50  1  0.07429400  0.00570500  0.50491100  1
  C  C51  1  0.57329500  0.50948000  0.00573400  1
  C  C52  1  0.42570600  0.50570500  0.99508900  1
  C  C53  1  0.97703400  0.00327600  0.47640000  1
  C  C54  1  0.02394400  0.01248300  0.52276300  1
  C  C55  1  0.52296600  0.50327600  0.02360000  1
  C  C56  1  0.47605600  0.51248300  0.97723700  1
  C  C57  1  0.98031000  0.99024900  0.41205900  1
  C  C58  1  0.02059600  0.03103600  0.58693300  1
  C  C59  1  0.51969000  0.49024900  0.08794100  1
  C  C60  1  0.47940400  0.53103600  0.91306700  1
  C  C61  1  0.92347200  0.02979700  0.55843800  1
  C  C62  1  0.07742700  0.99088800  0.44052600  1
  C  C63  1  0.57652800  0.52979700  0.94156200  1
  C  C64  1  0.42257300  0.49088800  0.05947400  1
  C  C65  1  0.97001500  0.03567000  0.60472500  1
  C  C66  1  0.03085900  0.97881500  0.39443500  1
  C  C67  1  0.52998500  0.53567100  0.89527600  1
  C  C68  1  0.46914100  0.47881500  0.10556500  1
  C  C69  1  0.82713600  0.98494200  0.46869800  1
  C  C70  1  0.82211800  0.87699000  0.52257500  1
  C  C71  1  0.77254600  0.86383700  0.54204900  1
  C  C72  1  0.72796300  0.95841900  0.50778300  1
  C  C73  1  0.73278800  0.06399200  0.45349900  1
  C  C74  1  0.78223500  0.07586300  0.43366000  1
  C  C75  1  0.17385500  0.99135600  0.53045300  1
  C  C76  1  0.17915400  0.85106000  0.48490800  1
  C  C77  1  0.22820400  0.82512100  0.46503000  1
  C  C78  1  0.27206800  0.94005400  0.49037100  1
  C  C79  1  0.26685700  0.08069100  0.53567400  1
  C  C80  1  0.21787700  0.10601500  0.55579900  1
  C  C81  1  0.67286400  0.48494200  0.03130200  1
  C  C82  1  0.67788200  0.37699000  0.97742500  1
  C  C83  1  0.72745400  0.36383700  0.95795200  1
  C  C84  1  0.77203700  0.45841900  0.99221700  1
  C  C85  1  0.76721200  0.56399200  0.04650200  1
  C  C86  1  0.71776500  0.57586300  0.06634000  1
  C  C87  1  0.32614500  0.49135600  0.96954700  1
  C  C88  1  0.32084600  0.35106000  0.01509200  1
  C  C89  1  0.27179600  0.32512100  0.03497000  1
  C  C90  1  0.22793200  0.44005400  0.00962900  1
  C  C91  1  0.23314400  0.58069100  0.96432700  1
  C  C92  1  0.28212300  0.60601500  0.94420100  1
  C  C93  1  0.96485600  0.04459900  0.67233000  1
  C  C94  1  0.92316300  0.15126300  0.69018800  1
  C  C95  1  0.91740400  0.15847500  0.75377000  1
  C  C96  1  0.95271300  0.05591000  0.79943000  1
  C  C97  1  0.99336200  0.94421800  0.78137500  1
  C  C98  1  0.99934100  0.93773700  0.71783900  1
  C  C99  1  0.03595800  0.94959400  0.32740900  1
  C  C100  1  0.07823300  0.03662000  0.30409400  1
  C  C101  1  0.08405700  0.00687800  0.24120700  1
  C  C102  1  0.04818600  0.88710800  0.20187500  1
  C  C103  1  0.00692800  0.79505800  0.22568800  1
  C  C104  1  0.00092600  0.82538400  0.28850100  1
  C  C105  1  0.53514400  0.54459900  0.82767000  1
  C  C106  1  0.57683700  0.65126300  0.80981300  1
  C  C107  1  0.58259600  0.65847500  0.74623100  1
  C  C108  1  0.54728700  0.55591000  0.70057000  1
  C  C109  1  0.50663800  0.44421800  0.71862500  1
  C  C110  1  0.50065900  0.43773700  0.78216100  1
  C  C111  1  0.46404200  0.44959400  0.17259100  1
  C  C112  1  0.42176700  0.53662000  0.19590600  1
  C  C113  1  0.41594300  0.50687800  0.25879300  1
  C  C114  1  0.45181400  0.38710800  0.29812500  1
  C  C115  1  0.49307200  0.29505800  0.27431200  1
  C  C116  1  0.49907400  0.32538400  0.21149900  1
  Cl  Cl1  1  0.87755600  0.74390800  0.56353100  1
  Cl  Cl2  1  0.12409100  0.69986800  0.45410800  1
  Cl  Cl3  1  0.62244400  0.24390800  0.93647000  1
  Cl  Cl4  1  0.37590900  0.19986800  0.04589200  1
  Cl  Cl5  1  0.87814100  0.28097700  0.63221000  1
  Cl  Cl6  1  0.12404200  0.18772000  0.35412400  1
  Cl  Cl7  1  0.62185900  0.78097700  0.86779000  1
  Cl  Cl8  1  0.37595800  0.68772000  0.14587600  1
  O  O1  1  0.80435500  0.65185400  0.20408500  1
  O  O2  1  0.19502800  0.39547600  0.79588100  1
  O  O3  1  0.69564500  0.15185400  0.29591600  1
  O  O4  1  0.30497200  0.89547600  0.70411900  1
  O  O5  1  0.68888800  0.30434000  0.17491900  1
  O  O6  1  0.31116900  0.74329800  0.82505400  1
  O  O7  1  0.81111200  0.80434000  0.32508100  1
  O  O8  1  0.18883100  0.24329700  0.67494600  1
  O  O9  1  0.79877300  0.30465500  0.18443200  1
  O  O10  1  0.20119700  0.74305000  0.81484000  1
  O  O11  1  0.70122700  0.80465500  0.31556800  1
  O  O12  1  0.29880400  0.24305000  0.68516000  1
  O  O13  1  0.81304900  0.15171000  0.30603400  1
  O  O14  1  0.18756400  0.89530500  0.69308900  1
  O  O15  1  0.68695100  0.65171000  0.19396600  1
  O  O16  1  0.31243600  0.39530500  0.80691100  1
  O  O17  1  0.75409700  0.47345200  0.28956100  1
  O  O18  1  0.24577200  0.57408100  0.71096900  1
  O  O19  1  0.74590300  0.97345400  0.21043900  1
  O  O20  1  0.25422800  0.07408100  0.78903100  1
