# generated using pymatgen
data_Cu3H63C52N7O12
_symmetry_space_group_name_H-M   'P 1'
_cell_length_a   36.65046100
_cell_length_b   30.14093700
_cell_length_c   21.27488000
_cell_angle_alpha   90.00000000
_cell_angle_beta   55.10936200
_cell_angle_gamma   90.00000000
_symmetry_Int_Tables_number   1
_chemical_formula_structural   Cu3H63C52N7O12
_chemical_formula_sum   'Cu12 H252 C208 N28 O48'
_cell_volume   19277.33916029
_cell_formula_units_Z   4
loop_
 _symmetry_equiv_pos_site_id
 _symmetry_equiv_pos_as_xyz
  1  'x, y, z'
loop_
 _atom_site_type_symbol
 _atom_site_label
 _atom_site_symmetry_multiplicity
 _atom_site_fract_x
 _atom_site_fract_y
 _atom_site_fract_z
 _atom_site_occupancy
  Cu  Cu1  1  0.00000000  0.54493000  0.50000000  1
  Cu  Cu2  1  0.50148200  0.50062500  0.05986300  1
  Cu  Cu3  1  0.99851800  0.00062500  0.94013700  1
  Cu  Cu4  1  0.00148200  0.00062500  0.05986300  1
  Cu  Cu5  1  0.50000000  0.04493000  0.50000000  1
  Cu  Cu6  1  0.00000000  0.45836500  0.50000000  1
  Cu  Cu7  1  0.50000000  0.95836500  0.50000000  1
  Cu  Cu8  1  0.95572900  0.50143600  0.04447000  1
  Cu  Cu9  1  0.04427100  0.50143600  0.95553000  1
  Cu  Cu10  1  0.45572900  0.00143600  0.04447000  1
  Cu  Cu11  1  0.54427100  0.00143600  0.95553000  1
  Cu  Cu12  1  0.49851800  0.50062500  0.94013700  1
  H  H1  1  0.99464400  0.57171100  0.30665400  1
  H  H2  1  0.93997000  0.54298700  0.76312100  1
  H  H3  1  0.60505400  0.02969900  0.27465400  1
  H  H4  1  0.63598500  0.02194600  0.17184100  1
  H  H5  1  0.64087800  0.98232000  0.22986800  1
  H  H6  1  0.42944700  0.92110000  0.80456200  1
  H  H7  1  0.38711300  0.91804300  0.78779000  1
  H  H8  1  0.37636200  0.94864600  0.86910900  1
  H  H9  1  0.39494600  0.02969900  0.72534600  1
  H  H10  1  0.36401500  0.02194600  0.82815900  1
  H  H11  1  0.35912100  0.98232000  0.77013200  1
  H  H12  1  0.78536200  0.42713900  0.82384200  1
  H  H13  1  0.56003000  0.04298700  0.23687800  1
  H  H14  1  0.81837600  0.38549700  0.75160900  1
  H  H15  1  0.76001100  0.37602300  0.82290800  1
  H  H16  1  0.76881800  0.40811000  0.64755500  1
  H  H17  1  0.75481100  0.36292800  0.71342800  1
  H  H18  1  0.81231600  0.37833000  0.64527500  1
  H  H19  1  0.21463800  0.42713900  0.17615800  1
  H  H20  1  0.18162400  0.38549800  0.24839100  1
  H  H21  1  0.23998900  0.37602300  0.17709200  1
  H  H22  1  0.23118200  0.40811000  0.35244600  1
  H  H23  1  0.24518900  0.36292800  0.28657200  1
  H  H24  1  0.43997000  0.04298700  0.76312100  1
  H  H25  1  0.18768400  0.37833000  0.35472500  1
  H  H26  1  0.28536200  0.92713900  0.82384200  1
  H  H27  1  0.31837600  0.88549700  0.75160900  1
  H  H28  1  0.26001100  0.87602300  0.82290800  1
  H  H29  1  0.26881800  0.90811000  0.64755500  1
  H  H30  1  0.25481100  0.86292800  0.71342800  1
  H  H31  1  0.31231600  0.87833000  0.64527500  1
  H  H32  1  0.71463800  0.92713900  0.17615800  1
  H  H33  1  0.68162400  0.88549800  0.24839100  1
  H  H34  1  0.73998900  0.87602300  0.17709200  1
  H  H35  1  0.06523800  0.53564200  0.13035000  1
  H  H36  1  0.73118200  0.90811000  0.35244600  1
  H  H37  1  0.74518900  0.86292800  0.28657200  1
  H  H38  1  0.68768400  0.87833000  0.35472500  1
  H  H39  1  0.71541700  0.59315600  0.68740800  1
  H  H40  1  0.67959700  0.57124500  0.66177600  1
  H  H41  1  0.73785600  0.58007800  0.58881900  1
  H  H42  1  0.72623700  0.45992800  0.62680200  1
  H  H43  1  0.74035300  0.50125900  0.55482000  1
  H  H44  1  0.68301900  0.49328300  0.63411800  1
  H  H45  1  0.28458300  0.59315600  0.31259200  1
  H  H46  1  0.93476200  0.53564200  0.86965000  1
  H  H47  1  0.32040300  0.57124500  0.33822500  1
  H  H48  1  0.26214400  0.58007800  0.41118100  1
  H  H49  1  0.27376300  0.45992800  0.37319800  1
  H  H50  1  0.25964700  0.50125900  0.44518000  1
  H  H51  1  0.31698100  0.49328300  0.36588200  1
  H  H52  1  0.21541700  0.09315600  0.68740800  1
  H  H53  1  0.17959700  0.07124500  0.66177600  1
  H  H54  1  0.23785600  0.08007800  0.58881900  1
  H  H55  1  0.22623700  0.95992800  0.62680200  1
  H  H56  1  0.24035300  0.00125900  0.55482000  1
  H  H57  1  0.56523800  0.03564200  0.13035000  1
  H  H58  1  0.18301900  0.99328300  0.63411800  1
  H  H59  1  0.78458300  0.09315600  0.31259200  1
  H  H60  1  0.82040300  0.07124500  0.33822400  1
  H  H61  1  0.76214400  0.08007800  0.41118100  1
  H  H62  1  0.77376300  0.95992800  0.37319800  1
  H  H63  1  0.75964700  0.00125900  0.44518000  1
  H  H64  1  0.81698100  0.99328300  0.36588200  1
  H  H65  1  0.89526900  0.49768300  0.37752700  1
  H  H66  1  0.87860200  0.55473100  0.38066500  1
  H  H67  1  0.86675000  0.52749100  0.46543700  1
  H  H68  1  0.43476200  0.03564200  0.86965000  1
  H  H69  1  0.92660600  0.61555600  0.38300900  1
  H  H70  1  0.95485800  0.59819600  0.42629400  1
  H  H71  1  0.89574600  0.59208200  0.47774000  1
  H  H72  1  0.10473100  0.49768300  0.62247400  1
  H  H73  1  0.12139800  0.55473100  0.61933600  1
  H  H74  1  0.13325000  0.52749100  0.53456300  1
  H  H75  1  0.07339400  0.61555600  0.61699100  1
  H  H76  1  0.04514200  0.59819600  0.57370600  1
  H  H77  1  0.10425400  0.59208200  0.52226000  1
  H  H78  1  0.39526900  0.99768300  0.37752700  1
  H  H79  1  0.00268800  0.43066200  0.30006600  1
  H  H80  1  0.37860200  0.05473100  0.38066400  1
  H  H81  1  0.36675000  0.02749100  0.46543700  1
  H  H82  1  0.42660600  0.11555600  0.38300900  1
  H  H83  1  0.45485800  0.09819600  0.42629400  1
  H  H84  1  0.39574600  0.09208200  0.47774000  1
  H  H85  1  0.60473100  0.99768300  0.62247400  1
  H  H86  1  0.62139800  0.05473100  0.61933600  1
  H  H87  1  0.63325000  0.02749100  0.53456300  1
  H  H88  1  0.57339400  0.11555600  0.61699100  1
  H  H89  1  0.54514200  0.09819600  0.57370600  1
  H  H90  1  0.99731300  0.43066100  0.69993500  1
  H  H91  1  0.60425400  0.09208200  0.52226000  1
  H  H92  1  0.05895600  0.28713900  0.07801400  1
  H  H93  1  0.11549200  0.29876300  0.99732700  1
  H  H94  1  0.09806000  0.24252000  0.02860000  1
  H  H95  1  0.10068500  0.28553800  0.85570500  1
  H  H96  1  0.10980900  0.22985900  0.87453700  1
  H  H97  1  0.14068800  0.27511000  0.87831000  1
  H  H98  1  0.94104400  0.28713900  0.92198600  1
  H  H99  1  0.88450800  0.29876300  0.00267300  1
  H  H100  1  0.90194000  0.24252000  0.97140000  1
  H  H101  1  0.50268700  0.93066200  0.30006600  1
  H  H102  1  0.89931500  0.28553800  0.14429500  1
  H  H103  1  0.89019100  0.22985900  0.12546300  1
  H  H104  1  0.85931200  0.27511000  0.12169100  1
  H  H105  1  0.55895600  0.78713900  0.07801400  1
  H  H106  1  0.61549200  0.79876300  0.99732700  1
  H  H107  1  0.59806000  0.74252000  0.02860000  1
  H  H108  1  0.60068500  0.78553800  0.85570500  1
  H  H109  1  0.60980900  0.72985900  0.87453700  1
  H  H110  1  0.64068800  0.77511000  0.87831000  1
  H  H111  1  0.44104400  0.78713900  0.92198600  1
  H  H112  1  0.00535500  0.57171100  0.69334600  1
  H  H113  1  0.49731300  0.93066100  0.69993500  1
  H  H114  1  0.38450800  0.79876300  0.00267300  1
  H  H115  1  0.40194000  0.74252000  0.97140000  1
  H  H116  1  0.39931500  0.78553800  0.14429500  1
  H  H117  1  0.39019100  0.72985900  0.12546300  1
  H  H118  1  0.35931200  0.77511000  0.12169100  1
  H  H119  1  0.10476200  0.36723300  0.86038500  1
  H  H120  1  0.14121500  0.35827600  0.89108800  1
  H  H121  1  0.11771700  0.41226500  0.90081700  1
  H  H122  1  0.03493200  0.37602700  0.09676100  1
  H  H123  1  0.07058900  0.42142700  0.03757100  1
  H  H124  1  0.94882000  0.45398200  0.35480400  1
  H  H125  1  0.09422500  0.37348000  0.05152500  1
  H  H126  1  0.89523700  0.36723300  0.13961500  1
  H  H127  1  0.85878500  0.35827600  0.10891200  1
  H  H128  1  0.88228300  0.41226500  0.09918300  1
  H  H129  1  0.96506800  0.37602700  0.90323900  1
  H  H130  1  0.92941100  0.42142700  0.96242900  1
  H  H131  1  0.90577500  0.37348000  0.94847500  1
  H  H132  1  0.60476200  0.86723300  0.86038500  1
  H  H133  1  0.64121500  0.85827600  0.89108800  1
  H  H134  1  0.61771700  0.91226500  0.90081700  1
  H  H135  1  0.05118000  0.45398100  0.64519700  1
  H  H136  1  0.53493200  0.87602700  0.09676100  1
  H  H137  1  0.57058900  0.92142700  0.03757100  1
  H  H138  1  0.59422500  0.87348000  0.05152500  1
  H  H139  1  0.39523700  0.86723300  0.13961500  1
  H  H140  1  0.35878500  0.85827600  0.10891200  1
  H  H141  1  0.38228300  0.91226500  0.09918300  1
  H  H142  1  0.46506800  0.87602700  0.90323900  1
  H  H143  1  0.42941100  0.92142700  0.96242900  1
  H  H144  1  0.40577500  0.87348000  0.94847500  1
  H  H145  1  0.03919500  0.60062600  0.18705900  1
  H  H146  1  0.44882000  0.95398200  0.35480400  1
  H  H147  1  0.99101900  0.63513400  0.25037400  1
  H  H148  1  0.01891300  0.63744800  0.14829900  1
  H  H149  1  0.92277200  0.57734300  0.19890100  1
  H  H150  1  0.94669500  0.63162000  0.18371800  1
  H  H151  1  0.91583400  0.60821300  0.27826900  1
  H  H152  1  0.96080400  0.60062600  0.81294200  1
  H  H153  1  0.00898100  0.63513400  0.74962600  1
  H  H154  1  0.98108700  0.63744800  0.85170100  1
  H  H155  1  0.07722700  0.57734300  0.80110000  1
  H  H156  1  0.05330500  0.63162000  0.81628200  1
  H  H157  1  0.55118000  0.95398100  0.64519700  1
  H  H158  1  0.08416600  0.60821300  0.72173100  1
  H  H159  1  0.53919600  0.10062600  0.18705900  1
  H  H160  1  0.49101900  0.13513400  0.25037400  1
  H  H161  1  0.51891300  0.13744800  0.14829900  1
  H  H162  1  0.42277200  0.07734300  0.19890100  1
  H  H163  1  0.44669500  0.13162000  0.18371800  1
  H  H164  1  0.41583400  0.10821300  0.27826900  1
  H  H165  1  0.46080400  0.10062600  0.81294200  1
  H  H166  1  0.50898100  0.13513400  0.74962600  1
  H  H167  1  0.48108700  0.13744800  0.85170100  1
  H  H168  1  0.94753900  0.45426600  0.24999300  1
  H  H169  1  0.57722700  0.07734300  0.80110000  1
  H  H170  1  0.55330500  0.13162000  0.81628200  1
  H  H171  1  0.58416600  0.10821300  0.72173100  1
  H  H172  1  0.05246100  0.45426600  0.75000700  1
  H  H173  1  0.44753900  0.95426600  0.24999300  1
  H  H174  1  0.55246100  0.95426600  0.75000700  1
  H  H175  1  0.00251100  0.43114100  0.19513600  1
  H  H176  1  0.49464400  0.07171100  0.30665400  1
  H  H177  1  0.99748900  0.43114100  0.80486400  1
  H  H178  1  0.50251100  0.93114100  0.19513600  1
  H  H179  1  0.49748900  0.93114100  0.80486400  1
  H  H180  1  0.06752000  0.47737000  0.12777200  1
  H  H181  1  0.93248000  0.47737000  0.87222800  1
  H  H182  1  0.56752000  0.97737000  0.12777200  1
  H  H183  1  0.43248000  0.97737000  0.87222800  1
  H  H184  1  0.86191000  0.43163000  0.64664000  1
  H  H185  1  0.13809000  0.43163000  0.35336000  1
  H  H186  1  0.36191000  0.93163000  0.64664000  1
  H  H187  1  0.50535500  0.07171100  0.69334600  1
  H  H188  1  0.63809000  0.93163000  0.35336000  1
  H  H189  1  0.86047400  0.57099500  0.61307500  1
  H  H190  1  0.13952600  0.57099500  0.38692500  1
  H  H191  1  0.36047400  0.07099500  0.61307500  1
  H  H192  1  0.63952600  0.07099500  0.38692500  1
  H  H193  1  0.77963800  0.57028600  0.69351400  1
  H  H194  1  0.22036200  0.57028600  0.30648700  1
  H  H195  1  0.27963800  0.07028600  0.69351400  1
  H  H196  1  0.72036200  0.07028600  0.30648700  1
  H  H197  1  0.63613400  0.52273400  0.76388900  1
  H  H198  1  0.93781200  0.52922500  0.26254200  1
  H  H199  1  0.36386600  0.52273400  0.23611100  1
  H  H200  1  0.13613400  0.02273400  0.76388900  1
  H  H201  1  0.86386600  0.02273400  0.23611100  1
  H  H202  1  0.64176400  0.47941000  0.94923800  1
  H  H203  1  0.35823600  0.47941000  0.05076200  1
  H  H204  1  0.14176400  0.97941000  0.94923800  1
  H  H205  1  0.85823600  0.97941000  0.05076200  1
  H  H206  1  0.72246200  0.48003800  0.86524200  1
  H  H207  1  0.27753800  0.48003800  0.13475800  1
  H  H208  1  0.22246200  0.98003800  0.86524200  1
  H  H209  1  0.06218800  0.52922500  0.73745800  1
  H  H210  1  0.77753800  0.98003800  0.13475800  1
  H  H211  1  0.07064000  0.72190400  0.92056200  1
  H  H212  1  0.92936000  0.72190400  0.07943800  1
  H  H213  1  0.57064000  0.22190400  0.92056200  1
  H  H214  1  0.42936000  0.22190400  0.07943800  1
  H  H215  1  0.07093000  0.64137300  0.92122000  1
  H  H216  1  0.92907000  0.64137300  0.07878000  1
  H  H217  1  0.57093000  0.14137300  0.92122000  1
  H  H218  1  0.42907000  0.14137300  0.07878000  1
  H  H219  1  0.45826000  0.28147900  0.12229100  1
  H  H220  1  0.43781200  0.02922500  0.26254200  1
  H  H221  1  0.54174000  0.28147900  0.87770900  1
  H  H222  1  0.95826000  0.78147900  0.12229100  1
  H  H223  1  0.04174000  0.78147900  0.87770900  1
  H  H224  1  0.45850300  0.36219300  0.12253300  1
  H  H225  1  0.54149700  0.36219300  0.87746700  1
  H  H226  1  0.95850300  0.86219300  0.12253300  1
  H  H227  1  0.04149700  0.86219300  0.87746700  1
  H  H228  1  0.50304800  0.71983700  0.09708700  1
  H  H229  1  0.49695200  0.71983700  0.90291300  1
  H  H230  1  0.00304800  0.21983700  0.09708700  1
  H  H231  1  0.56218800  0.02922500  0.73745800  1
  H  H232  1  0.99695200  0.21983700  0.90291300  1
  H  H233  1  0.50413600  0.63904200  0.09631600  1
  H  H234  1  0.49586400  0.63904200  0.90368400  1
  H  H235  1  0.00413600  0.13904200  0.09631600  1
  H  H236  1  0.99586400  0.13904200  0.90368400  1
  H  H237  1  0.07055300  0.42110000  0.19543900  1
  H  H238  1  0.11288700  0.41804300  0.21221000  1
  H  H239  1  0.12363800  0.44864600  0.13089200  1
  H  H240  1  0.10505400  0.52969900  0.27465400  1
  H  H241  1  0.13598500  0.52194600  0.17184100  1
  H  H242  1  0.06003100  0.54298700  0.23687800  1
  H  H243  1  0.14087800  0.48232000  0.22986800  1
  H  H244  1  0.92944700  0.42110000  0.80456200  1
  H  H245  1  0.88711300  0.41804300  0.78779000  1
  H  H246  1  0.87636200  0.44864600  0.86910900  1
  H  H247  1  0.89494700  0.52969900  0.72534600  1
  H  H248  1  0.86401500  0.52194600  0.82815900  1
  H  H249  1  0.85912100  0.48232000  0.77013200  1
  H  H250  1  0.57055300  0.92110000  0.19543900  1
  H  H251  1  0.61288700  0.91804400  0.21221000  1
  H  H252  1  0.62363800  0.94864600  0.13089200  1
  C  C1  1  0.91565000  0.50144800  0.57812800  1
  C  C2  1  0.02496300  0.54261500  0.68772800  1
  C  C3  1  0.41562600  0.50077400  0.08719200  1
  C  C4  1  0.08437400  0.00077400  0.91280800  1
  C  C5  1  0.91562600  0.00077400  0.08719200  1
  C  C6  1  0.50000000  0.58473300  0.00000000  1
  C  C7  1  0.00000000  0.08473300  0.00000000  1
  C  C8  1  0.03942900  0.70432000  0.95519300  1
  C  C9  1  0.96057100  0.70432000  0.04480700  1
  C  C10  1  0.53942900  0.20432000  0.95519300  1
  C  C11  1  0.46057100  0.20432000  0.04480700  1
  C  C12  1  0.03952900  0.65859100  0.95602700  1
  C  C13  1  0.47503700  0.04261500  0.31227200  1
  C  C14  1  0.96047100  0.65859100  0.04397300  1
  C  C15  1  0.53952900  0.15859100  0.95602700  1
  C  C16  1  0.46047100  0.15859100  0.04397300  1
  C  C17  1  0.00000000  0.63541900  0.00000000  1
  C  C18  1  0.50000000  0.13541900  0.00000000  1
  C  C19  1  0.00000000  0.72739600  0.00000000  1
  C  C20  1  0.50000000  0.22739600  0.00000000  1
  C  C21  1  0.47643900  0.29906900  0.06832400  1
  C  C22  1  0.52356100  0.29906900  0.93167700  1
  C  C23  1  0.97643900  0.79906900  0.06832400  1
  C  C24  1  0.52496300  0.04261500  0.68772800  1
  C  C25  1  0.02356100  0.79906900  0.93167700  1
  C  C26  1  0.47694600  0.34480900  0.06839000  1
  C  C27  1  0.52305400  0.34480900  0.93161100  1
  C  C28  1  0.97694600  0.84480900  0.06839000  1
  C  C29  1  0.02305400  0.84480900  0.93161100  1
  C  C30  1  0.50000000  0.36790800  0.00000000  1
  C  C31  1  0.00000000  0.86790800  0.00000000  1
  C  C32  1  0.50000000  0.27599500  0.00000000  1
  C  C33  1  0.00000000  0.77599500  0.00000000  1
  C  C34  1  0.03632700  0.29617700  0.98702300  1
  C  C35  1  0.97124800  0.53997700  0.24343100  1
  C  C36  1  0.96367300  0.29617700  0.01297700  1
  C  C37  1  0.53632700  0.79617700  0.98702300  1
  C  C38  1  0.46367300  0.79617700  0.01297700  1
  C  C39  1  0.03673200  0.34238600  0.98731400  1
  C  C40  1  0.96326800  0.34238600  0.01268600  1
  C  C41  1  0.53673200  0.84238600  0.98731400  1
  C  C42  1  0.46326800  0.84238600  0.01268600  1
  C  C43  1  0.00000000  0.36618700  0.00000000  1
  C  C44  1  0.50000000  0.86618700  0.00000000  1
  C  C45  1  0.00000000  0.27374400  0.00000000  1
  C  C46  1  0.02875200  0.53997700  0.75657000  1
  C  C47  1  0.50000000  0.77374400  0.00000000  1
  C  C48  1  0.50202300  0.70209500  0.05398100  1
  C  C49  1  0.49797700  0.70209500  0.94601900  1
  C  C50  1  0.00202300  0.20209500  0.05398100  1
  C  C51  1  0.99797700  0.20209500  0.94601900  1
  C  C52  1  0.50255900  0.65638600  0.05348100  1
  C  C53  1  0.49744100  0.65638600  0.94652000  1
  C  C54  1  0.00255900  0.15638600  0.05348100  1
  C  C55  1  0.99744100  0.15638600  0.94652000  1
  C  C56  1  0.50000000  0.63330400  0.00000000  1
  C  C57  1  0.47124800  0.03997700  0.24343100  1
  C  C58  1  0.00000000  0.13330400  0.00000000  1
  C  C59  1  0.50000000  0.72514400  0.00000000  1
  C  C60  1  0.00000000  0.22514400  0.00000000  1
  C  C61  1  0.09762500  0.44003200  0.19144200  1
  C  C62  1  0.11762400  0.50488100  0.22816900  1
  C  C63  1  0.90237500  0.44003200  0.80855900  1
  C  C64  1  0.88237600  0.50488100  0.77183100  1
  C  C65  1  0.59762500  0.94003200  0.19144200  1
  C  C66  1  0.61762400  0.00488100  0.22816900  1
  C  C67  1  0.40237500  0.94003200  0.80855900  1
  C  C68  1  0.52875200  0.03997700  0.75657000  1
  C  C69  1  0.38237600  0.00488100  0.77183100  1
  C  C70  1  0.78526000  0.40156800  0.78647400  1
  C  C71  1  0.77785300  0.39113100  0.68301600  1
  C  C72  1  0.21474000  0.40156800  0.21352600  1
  C  C73  1  0.22214700  0.39113100  0.31698400  1
  C  C74  1  0.28526000  0.90156800  0.78647400  1
  C  C75  1  0.27785300  0.89113100  0.68301600  1
  C  C76  1  0.71474000  0.90156800  0.21352600  1
  C  C77  1  0.72214700  0.89113100  0.31698400  1
  C  C78  1  0.71339900  0.56987000  0.64915400  1
  C  C79  1  0.04963700  0.50857100  0.23681500  1
  C  C80  1  0.71788300  0.49329800  0.61672200  1
  C  C81  1  0.28660100  0.56987000  0.35084600  1
  C  C82  1  0.28211700  0.49329800  0.38327800  1
  C  C83  1  0.21339900  0.06987000  0.64915400  1
  C  C84  1  0.21788300  0.99329800  0.61672200  1
  C  C85  1  0.78660100  0.06987000  0.35084600  1
  C  C86  1  0.78211700  0.99329800  0.38327800  1
  C  C87  1  0.89166200  0.53076600  0.40271700  1
  C  C88  1  0.92748500  0.59043700  0.42015100  1
  C  C89  1  0.10833800  0.53076600  0.59728300  1
  C  C90  1  0.95036300  0.50857100  0.76318500  1
  C  C91  1  0.07251500  0.59043700  0.57984900  1
  C  C92  1  0.39166200  0.03076600  0.40271700  1
  C  C93  1  0.42748500  0.09043700  0.42015100  1
  C  C94  1  0.60833800  0.03076600  0.59728300  1
  C  C95  1  0.57251500  0.09043700  0.57984900  1
  C  C96  1  0.08726800  0.27531300  0.02121200  1
  C  C97  1  0.10812300  0.26520000  0.89047500  1
  C  C98  1  0.91273200  0.27531300  0.97878800  1
  C  C99  1  0.89187700  0.26520000  0.10952500  1
  C  C100  1  0.58726800  0.77531300  0.02121200  1
  C  C101  1  0.54963700  0.00857100  0.23681500  1
  C  C102  1  0.60812300  0.76520000  0.89047500  1
  C  C103  1  0.41273200  0.77531300  0.97878800  1
  C  C104  1  0.39187700  0.76520000  0.10952500  1
  C  C105  1  0.11130600  0.37614300  0.90363900  1
  C  C106  1  0.06791800  0.38502200  0.04482700  1
  C  C107  1  0.88869400  0.37614300  0.09636100  1
  C  C108  1  0.93208200  0.38502200  0.95517300  1
  C  C109  1  0.61130600  0.87614300  0.90363900  1
  C  C110  1  0.56791800  0.88502200  0.04482700  1
  C  C111  1  0.38869400  0.87614300  0.09636100  1
  C  C112  1  0.08435000  0.50144800  0.42187300  1
  C  C113  1  0.45036300  0.00857100  0.76318500  1
  C  C114  1  0.43208200  0.88502200  0.95517300  1
  C  C115  1  0.00860300  0.61503800  0.19716000  1
  C  C116  1  0.93893500  0.60041900  0.21650000  1
  C  C117  1  0.99139700  0.61503800  0.80284000  1
  C  C118  1  0.06106500  0.60041900  0.78350000  1
  C  C119  1  0.50860300  0.11503800  0.19716000  1
  C  C120  1  0.43893500  0.10041900  0.21650000  1
  C  C121  1  0.49139700  0.11503800  0.80284000  1
  C  C122  1  0.56106500  0.10041900  0.78350000  1
  C  C123  1  0.98282100  0.45922100  0.30311900  1
  C  C124  1  0.01717900  0.45922100  0.69688100  1
  C  C125  1  0.48282100  0.95922100  0.30311900  1
  C  C126  1  0.51717900  0.95922100  0.69688100  1
  C  C127  1  0.00227600  0.50267600  0.30851700  1
  C  C128  1  0.99772400  0.50267600  0.69148300  1
  C  C129  1  0.50227600  0.00267600  0.30851700  1
  C  C130  1  0.49772400  0.00267600  0.69148300  1
  C  C131  1  0.00112300  0.50250900  0.18972900  1
  C  C132  1  0.41565000  0.00144800  0.57812800  1
  C  C133  1  0.99887700  0.50250900  0.81027200  1
  C  C134  1  0.50112300  0.00250900  0.18972900  1
  C  C135  1  0.49887700  0.00250900  0.81027200  1
  C  C136  1  0.04906100  0.50566100  0.16561200  1
  C  C137  1  0.95093900  0.50566100  0.83438800  1
  C  C138  1  0.54906100  0.00566100  0.16561200  1
  C  C139  1  0.45093900  0.00566100  0.83438800  1
  C  C140  1  0.98213800  0.45912700  0.23255600  1
  C  C141  1  0.01786200  0.45912700  0.76744400  1
  C  C142  1  0.48213800  0.95912700  0.23255600  1
  C  C143  1  0.58435000  0.00144800  0.42187300  1
  C  C144  1  0.51786200  0.95912700  0.76744400  1
  C  C145  1  0.79775400  0.46177500  0.70389900  1
  C  C146  1  0.20224600  0.46177500  0.29610100  1
  C  C147  1  0.29775400  0.96177500  0.70389900  1
  C  C148  1  0.70224600  0.96177500  0.29610100  1
  C  C149  1  0.84380100  0.46209500  0.65708800  1
  C  C150  1  0.15619900  0.46209500  0.34291200  1
  C  C151  1  0.34380100  0.96209500  0.65708800  1
  C  C152  1  0.65619900  0.96209500  0.34291200  1
  C  C153  1  0.86680100  0.50115300  0.62407700  1
  C  C154  1  0.00264200  0.50186000  0.37833800  1
  C  C155  1  0.13319900  0.50115300  0.37592400  1
  C  C156  1  0.36680100  0.00115300  0.62407700  1
  C  C157  1  0.63319900  0.00115300  0.37592400  1
  C  C158  1  0.84336100  0.53990100  0.63704500  1
  C  C159  1  0.15663900  0.53990100  0.36295500  1
  C  C160  1  0.34336100  0.03990100  0.63704500  1
  C  C161  1  0.65663900  0.03990100  0.36295500  1
  C  C162  1  0.79750000  0.53955800  0.68265000  1
  C  C163  1  0.20250000  0.53955800  0.31735000  1
  C  C164  1  0.29750000  0.03955800  0.68265000  1
  C  C165  1  0.99735800  0.50186000  0.62166200  1
  C  C166  1  0.70250000  0.03955800  0.31735000  1
  C  C167  1  0.77445200  0.50066800  0.71624000  1
  C  C168  1  0.22554800  0.50066800  0.28376000  1
  C  C169  1  0.27445200  0.00066800  0.71624000  1
  C  C170  1  0.72554800  0.00066800  0.28376000  1
  C  C171  1  0.70119500  0.51387600  0.73827700  1
  C  C172  1  0.29880500  0.51387600  0.26172300  1
  C  C173  1  0.20119500  0.01387600  0.73827700  1
  C  C174  1  0.79880500  0.01387600  0.26172300  1
  C  C175  1  0.65511900  0.51356200  0.78622400  1
  C  C176  1  0.50264200  0.00186000  0.37833800  1
  C  C177  1  0.34488100  0.51356200  0.21377700  1
  C  C178  1  0.15511900  0.01356200  0.78622400  1
  C  C179  1  0.84488100  0.01356200  0.21377700  1
  C  C180  1  0.63326300  0.50107600  0.86222100  1
  C  C181  1  0.36673700  0.50107600  0.13777900  1
  C  C182  1  0.13326300  0.00107600  0.86222100  1
  C  C183  1  0.86673700  0.00107600  0.13777900  1
  C  C184  1  0.65788500  0.48900000  0.89005100  1
  C  C185  1  0.34211500  0.48900000  0.10994900  1
  C  C186  1  0.15788500  0.98900000  0.89005100  1
  C  C187  1  0.49735800  0.00186000  0.62166200  1
  C  C188  1  0.84211500  0.98900000  0.10994900  1
  C  C189  1  0.70369800  0.48905000  0.84236300  1
  C  C190  1  0.29630200  0.48905000  0.15763700  1
  C  C191  1  0.20369800  0.98905000  0.84236300  1
  C  C192  1  0.79630200  0.98905000  0.15763700  1
  C  C193  1  0.72559100  0.50103600  0.76632000  1
  C  C194  1  0.27440800  0.50103600  0.23368000  1
  C  C195  1  0.22559100  0.00103600  0.76632000  1
  C  C196  1  0.77440800  0.00103600  0.23368000  1
  C  C197  1  0.00000000  0.58675100  0.00000000  1
  C  C198  1  0.97503700  0.54261500  0.31227200  1
  C  C199  1  0.50000000  0.08675100  0.00000000  1
  C  C200  1  0.00057100  0.50215700  0.12014300  1
  C  C201  1  0.99942900  0.50215700  0.87985700  1
  C  C202  1  0.50057100  0.00215700  0.12014300  1
  C  C203  1  0.49942900  0.00215700  0.87985700  1
  C  C204  1  0.00000000  0.41565400  0.00000000  1
  C  C205  1  0.50000000  0.91565400  0.00000000  1
  C  C206  1  0.50000000  0.41650400  0.00000000  1
  C  C207  1  0.00000000  0.91650400  0.00000000  1
  C  C208  1  0.58437400  0.50077400  0.91280800  1
  N  N1  1  0.08128700  0.47975700  0.23788400  1
  N  N2  1  0.27638400  0.52562500  0.33982100  1
  N  N3  1  0.22361600  0.02562500  0.66017900  1
  N  N4  1  0.77638400  0.02562500  0.33982100  1
  N  N5  1  0.93310300  0.54677400  0.38802600  1
  N  N6  1  0.06689700  0.54677400  0.61197500  1
  N  N7  1  0.43310300  0.04677400  0.38802600  1
  N  N8  1  0.56689700  0.04677400  0.61197500  1
  N  N9  1  0.07325700  0.27056600  0.97059600  1
  N  N10  1  0.92674300  0.27056600  0.02940500  1
  N  N11  1  0.57325700  0.77056600  0.97059600  1
  N  N12  1  0.91871300  0.47975700  0.76211600  1
  N  N13  1  0.42674300  0.77056600  0.02940500  1
  N  N14  1  0.07358200  0.36408000  0.97894600  1
  N  N15  1  0.92641800  0.36408000  0.02105400  1
  N  N16  1  0.57358200  0.86408000  0.97894600  1
  N  N17  1  0.42641800  0.86408000  0.02105400  1
  N  N18  1  0.97925900  0.58127500  0.20137000  1
  N  N19  1  0.02074100  0.58127500  0.79863000  1
  N  N20  1  0.47925900  0.08127500  0.20137000  1
  N  N21  1  0.52074100  0.08127500  0.79863000  1
  N  N22  1  0.58128700  0.97975700  0.23788400  1
  N  N23  1  0.41871300  0.97975700  0.76211600  1
  N  N24  1  0.77425300  0.42189100  0.73803500  1
  N  N25  1  0.22574700  0.42189100  0.26196500  1
  N  N26  1  0.27425300  0.92189100  0.73803500  1
  N  N27  1  0.72574700  0.92189100  0.26196500  1
  N  N28  1  0.72361600  0.52562500  0.66017900  1
  O  O1  1  0.93704300  0.53814800  0.54125600  1
  O  O2  1  0.98524700  0.53819400  0.60344700  1
  O  O3  1  0.51475300  0.03819400  0.39655300  1
  O  O4  1  0.48524700  0.03819400  0.60344700  1
  O  O5  1  0.98986300  0.46517400  0.41981400  1
  O  O6  1  0.01013700  0.46517400  0.58018600  1
  O  O7  1  0.48986300  0.96517400  0.41981400  1
  O  O8  1  0.51013700  0.96517400  0.58018600  1
  O  O9  1  0.96175200  0.56592600  0.04119800  1
  O  O10  1  0.03824800  0.56592600  0.95880200  1
  O  O11  1  0.46175200  0.06592600  0.04119800  1
  O  O12  1  0.06295700  0.53814800  0.45874400  1
  O  O13  1  0.53824800  0.06592600  0.95880200  1
  O  O14  1  0.96208200  0.49962200  0.12949500  1
  O  O15  1  0.03791800  0.49962200  0.87050500  1
  O  O16  1  0.46208200  0.99962200  0.12949500  1
  O  O17  1  0.53791800  0.99962200  0.87050500  1
  O  O18  1  0.03856000  0.50008900  0.05256100  1
  O  O19  1  0.96144000  0.50008900  0.94743900  1
  O  O20  1  0.53856000  0.00008900  0.05256100  1
  O  O21  1  0.46144000  0.00008900  0.94743900  1
  O  O22  1  0.96195100  0.43693700  0.04071700  1
  O  O23  1  0.43704300  0.03814800  0.54125600  1
  O  O24  1  0.03804900  0.43693700  0.95928300  1
  O  O25  1  0.46195100  0.93693700  0.04071700  1
  O  O26  1  0.53804900  0.93693700  0.95928300  1
  O  O27  1  0.51103800  0.43734100  0.93677200  1
  O  O28  1  0.48896200  0.43734100  0.06322800  1
  O  O29  1  0.01103800  0.93734100  0.93677200  1
  O  O30  1  0.98896200  0.93734100  0.06322800  1
  O  O31  1  0.56215500  0.51291500  0.88393600  1
  O  O32  1  0.43784500  0.51291500  0.11606400  1
  O  O33  1  0.06215500  0.01291500  0.88393600  1
  O  O34  1  0.56295700  0.03814800  0.45874400  1
  O  O35  1  0.93784500  0.01291500  0.11606400  1
  O  O36  1  0.56462000  0.48839200  0.98500100  1
  O  O37  1  0.43538000  0.48839200  0.01500000  1
  O  O38  1  0.06462000  0.98839200  0.98500100  1
  O  O39  1  0.93538000  0.98839200  0.01500000  1
  O  O40  1  0.48650700  0.56391300  0.96208100  1
  O  O41  1  0.51349300  0.56391300  0.03791900  1
  O  O42  1  0.98650700  0.06391300  0.96208100  1
  O  O43  1  0.01349300  0.06391300  0.03791900  1
  O  O44  1  0.93613600  0.46510700  0.57709200  1
  O  O45  1  0.06386400  0.46510700  0.42290800  1
  O  O46  1  0.43613600  0.96510700  0.57709200  1
  O  O47  1  0.56386400  0.96510700  0.42290800  1
  O  O48  1  0.01475300  0.53819400  0.39655300  1
