# generated using pymatgen
data_V2H24C30O13
_symmetry_space_group_name_H-M   'P 1'
_cell_length_a   19.79010000
_cell_length_b   6.81800000
_cell_length_c   16.92070100
_cell_angle_alpha   90.00000000
_cell_angle_beta   108.14530900
_cell_angle_gamma   90.00000000
_symmetry_Int_Tables_number   1
_chemical_formula_structural   V2H24C30O13
_chemical_formula_sum   'V4 H48 C60 O26'
_cell_volume   2169.55289711
_cell_formula_units_Z   2
loop_
 _symmetry_equiv_pos_site_id
 _symmetry_equiv_pos_as_xyz
  1  'x, y, z'
loop_
 _atom_site_type_symbol
 _atom_site_label
 _atom_site_symmetry_multiplicity
 _atom_site_fract_x
 _atom_site_fract_y
 _atom_site_fract_z
 _atom_site_occupancy
  V  V1  1  0.49577000  0.08479500  0.48452600  1
  V  V2  1  0.50422900  0.58479500  0.51547400  1
  V  V3  1  0.00160700  0.43349200  0.01343800  1
  V  V4  1  0.99839300  0.93349000  0.98656200  1
  H  H1  1  0.80997300  0.52796100  0.82636000  1
  H  H2  1  0.19002700  0.02796100  0.17364000  1
  H  H3  1  0.69675100  0.56613400  0.70950300  1
  H  H4  1  0.30325000  0.06613500  0.29049700  1
  H  H5  1  0.69981000  0.12041900  0.69251000  1
  H  H6  1  0.30019000  0.62042000  0.30749100  1
  H  H7  1  0.34239300  0.98791000  0.60690000  1
  H  H8  1  0.65760700  0.48791000  0.39310100  1
  H  H9  1  0.38430900  0.58729800  0.67695100  1
  H  H10  1  0.61569000  0.08729800  0.32304900  1
  H  H11  1  0.32712200  0.73737900  0.76760100  1
  H  H12  1  0.67287800  0.23737900  0.23239900  1
  H  H13  1  0.24469700  0.71822600  0.85016000  1
  H  H14  1  0.75530300  0.21822600  0.14984000  1
  H  H15  1  0.16068300  0.53693600  0.89782500  1
  H  H16  1  0.83931700  0.03693700  0.10217500  1
  H  H17  1  0.11882900  0.93775200  0.82733000  1
  H  H18  1  0.88117100  0.43775300  0.17267000  1
  H  H19  1  0.10887600  0.82174500  0.61796300  1
  H  H20  1  0.07190800  0.89181000  0.69941400  1
  H  H21  1  0.05420900  0.54062800  0.72623700  1
  H  H22  1  0.00855000  0.60524200  0.61901900  1
  H  H23  1  0.09153400  0.47095300  0.64525200  1
  H  H24  1  0.89112500  0.32175200  0.38203600  1
  H  H25  1  0.92809200  0.39180700  0.30058400  1
  H  H26  1  0.94579100  0.04062400  0.27376400  1
  H  H27  1  0.99145000  0.10524100  0.38098300  1
  H  H28  1  0.90846400  0.97095600  0.35474900  1
  H  H29  1  0.25381300  0.84973000  0.52710800  1
  H  H30  1  0.18071300  0.92238600  0.56358600  1
  H  H31  1  0.14740600  0.57109400  0.56867600  1
  H  H32  1  0.14560600  0.64515400  0.46527400  1
  H  H33  1  0.21926400  0.50112800  0.52942600  1
  H  H34  1  0.74618800  0.34972800  0.47289300  1
  H  H35  1  0.81928800  0.42238500  0.43641400  1
  H  H36  1  0.85259600  0.07109700  0.43132300  1
  H  H37  1  0.85439500  0.14515100  0.53472500  1
  H  H38  1  0.78073800  0.00112600  0.47057200  1
  H  H39  1  0.87412900  0.89695200  0.75245300  1
  H  H40  1  0.86763000  0.15158700  0.72046400  1
  H  H41  1  0.75508700  0.08305700  0.60954900  1
  H  H42  1  0.82531600  0.92448300  0.59942200  1
  H  H43  1  0.75879600  0.82931900  0.64234000  1
  H  H44  1  0.12587300  0.39694200  0.24754700  1
  H  H45  1  0.13236700  0.65158000  0.27953300  1
  H  H46  1  0.24491000  0.58307000  0.39045000  1
  H  H47  1  0.17468300  0.42448500  0.40057800  1
  H  H48  1  0.24120700  0.32932900  0.35766200  1
  C  C1  1  0.58178400  0.80299600  0.41411900  1
  C  C2  1  0.41821600  0.30299700  0.58588200  1
  C  C3  1  0.38565900  0.79900400  0.38674800  1
  C  C4  1  0.61434200  0.29900400  0.61325400  1
  C  C5  1  0.78632900  0.39715500  0.79254500  1
  C  C6  1  0.21367100  0.89715600  0.20745700  1
  C  C7  1  0.82034200  0.22631200  0.81485300  1
  C  C8  1  0.17965800  0.72631100  0.18514600  1
  C  C9  1  0.71818000  0.41952100  0.72418100  1
  C  C10  1  0.28182000  0.91951900  0.27581900  1
  C  C11  1  0.68161000  0.26941200  0.68028400  1
  C  C12  1  0.31838900  0.76941200  0.31971500  1
  C  C13  1  0.33384200  0.11563800  0.64042100  1
  C  C14  1  0.66615800  0.61563900  0.35957900  1
  C  C15  1  0.36921000  0.28885600  0.63634300  1
  C  C16  1  0.63079000  0.78885600  0.36365700  1
  C  C17  1  0.35711100  0.45106500  0.67946800  1
  C  C18  1  0.64288900  0.95106400  0.32053200  1
  C  C19  1  0.31055400  0.44019500  0.72604400  1
  C  C20  1  0.68944600  0.94019400  0.27395600  1
  C  C21  1  0.27510900  0.26773500  0.72929700  1
  C  C22  1  0.72489100  0.76773600  0.27070200  1
  C  C23  1  0.28673400  0.10561800  0.68639000  1
  C  C24  1  0.71326600  0.60561800  0.31361100  1
  C  C25  1  0.29929000  0.60191200  0.76955200  1
  C  C26  1  0.70071000  0.10191300  0.23044800  1
  C  C27  1  0.25271100  0.59135600  0.81578900  1
  C  C28  1  0.74728800  0.09135700  0.18421100  1
  C  C29  1  0.21658900  0.41934400  0.81847700  1
  C  C30  1  0.78341200  0.91934300  0.18152300  1
  C  C31  1  0.22810400  0.25742800  0.77534800  1
  C  C32  1  0.77189500  0.75742900  0.22465100  1
  C  C33  1  0.19262500  0.08497300  0.77846000  1
  C  C34  1  0.80737500  0.58497400  0.22154100  1
  C  C35  1  0.20384500  0.92318200  0.73496500  1
  C  C36  1  0.79615600  0.42318200  0.26503500  1
  C  C37  1  0.25083500  0.93336700  0.68926400  1
  C  C38  1  0.74916600  0.43336700  0.31073600  1
  C  C39  1  0.16932000  0.40928700  0.86431100  1
  C  C40  1  0.83068100  0.90928600  0.13568900  1
  C  C41  1  0.13383200  0.23598700  0.86806900  1
  C  C42  1  0.86616700  0.73598700  0.13193100  1
  C  C43  1  0.14607800  0.07398200  0.82497200  1
  C  C44  1  0.85392200  0.57398300  0.17502800  1
  C  C45  1  0.11282400  0.71530800  0.11601700  1
  C  C46  1  0.88717600  0.21530800  0.88398400  1
  C  C47  1  0.91583200  0.72051700  0.08235500  1
  C  C48  1  0.08416900  0.22051600  0.91764700  1
  C  C49  1  0.10199000  0.77726300  0.67800600  1
  C  C50  1  0.06134900  0.58572900  0.66636300  1
  C  C51  1  0.89801000  0.27726600  0.32199200  1
  C  C52  1  0.93865100  0.08572800  0.33363800  1
  C  C53  1  0.21971500  0.80464000  0.56497600  1
  C  C54  1  0.18036700  0.61801000  0.52973200  1
  C  C55  1  0.78028600  0.30464100  0.43502400  1
  C  C56  1  0.81963500  0.11800800  0.47026700  1
  C  C57  1  0.83691300  0.01802200  0.72456700  1
  C  C58  1  0.79094400  0.95987700  0.63819900  1
  C  C59  1  0.16308600  0.51802000  0.27543100  1
  C  C60  1  0.20905600  0.45988200  0.36180200  1
  O  O1  1  0.41515100  0.63450000  0.42490700  1
  O  O2  1  0.58484900  0.13450000  0.57509400  1
  O  O3  1  0.55409600  0.98075300  0.41703700  1
  O  O4  1  0.44590400  0.48075200  0.58296200  1
  O  O5  1  0.41200000  0.98088700  0.39709800  1
  O  O6  1  0.58800000  0.48088800  0.60290200  1
  O  O7  1  0.43345700  0.13486200  0.55402900  1
  O  O8  1  0.56654400  0.63486200  0.44597200  1
  O  O9  1  0.51105400  0.81684500  0.55102000  1
  O  O10  1  0.48894600  0.31684600  0.44898000  1
  O  O11  1  0.93391500  0.88836300  0.05293200  1
  O  O12  1  0.06608500  0.38836100  0.94706800  1
  O  O13  1  0.08411600  0.53662700  0.10272300  1
  O  O14  1  0.91588300  0.03662600  0.89727800  1
  O  O15  1  0.94144900  0.54087000  0.07806600  1
  O  O16  1  0.05855200  0.04086800  0.92193500  1
  O  O17  1  0.91382100  0.38434500  0.92074900  1
  O  O18  1  0.08617900  0.88434400  0.07925100  1
  O  O19  1  0.99315100  0.70220000  0.95056200  1
  O  O20  1  0.00684900  0.20220200  0.04943700  1
  O  O21  1  0.16848200  0.75219400  0.73721600  1
  O  O22  1  0.83151800  0.25219400  0.26278400  1
  O  O23  1  0.26185000  0.77229200  0.64684300  1
  O  O24  1  0.73815000  0.27229300  0.35315700  1
  O  O25  1  0.79384300  0.05641300  0.77411100  1
  O  O26  1  0.20615700  0.55641300  0.22588800  1
