# generated using pymatgen
data_VH5C14NO6
_symmetry_space_group_name_H-M   'P 1'
_cell_length_a   23.29560000
_cell_length_b   6.81800000
_cell_length_c   19.65320300
_cell_angle_alpha   90.00000000
_cell_angle_beta   92.66170100
_cell_angle_gamma   90.00000000
_symmetry_Int_Tables_number   1
_chemical_formula_structural   VH5C14NO6
_chemical_formula_sum   'V4 H20 C56 N4 O24'
_cell_volume   3118.13878723
_cell_formula_units_Z   4
loop_
 _symmetry_equiv_pos_site_id
 _symmetry_equiv_pos_as_xyz
  1  'x, y, z'
loop_
 _atom_site_type_symbol
 _atom_site_label
 _atom_site_symmetry_multiplicity
 _atom_site_fract_x
 _atom_site_fract_y
 _atom_site_fract_z
 _atom_site_occupancy
  V  V1  1  0.74923100  0.80390000  0.23964500  1
  V  V2  1  0.25050000  0.21485800  0.75999100  1
  V  V3  1  0.75076900  0.30390000  0.26035500  1
  V  V4  1  0.24950000  0.71485900  0.74000900  1
  H  H1  1  0.14009100  0.73936100  0.56871500  1
  H  H2  1  0.86036500  0.27989900  0.43062600  1
  H  H3  1  0.35990900  0.23936200  0.93128400  1
  H  H4  1  0.63963500  0.77989800  0.06937400  1
  H  H5  1  0.08533800  0.58702200  0.47865200  1
  H  H6  1  0.91253800  0.42524300  0.52439000  1
  H  H7  1  0.41466200  0.08702200  0.02134800  1
  H  H8  1  0.58746100  0.92524300  0.97561000  1
  H  H9  1  0.00223000  0.58076900  0.39878500  1
  H  H10  1  0.99246800  0.42520900  0.60750400  1
  H  H11  1  0.49777000  0.08076900  0.10121500  1
  H  H12  1  0.50753200  0.92520900  0.89249500  1
  H  H13  1  0.07772700  0.58999800  0.70136300  1
  H  H14  1  0.08613100  0.56290100  0.61692200  1
  H  H15  1  0.95226400  0.51183300  0.26935300  1
  H  H16  1  0.98432600  0.73344100  0.27716500  1
  H  H17  1  0.42227300  0.08999800  0.79863700  1
  H  H18  1  0.41386900  0.06290100  0.88307800  1
  H  H19  1  0.54773600  0.01183400  0.23064700  1
  H  H20  1  0.51567300  0.23344100  0.22283500  1
  C  C1  1  0.83311700  0.52313400  0.16643200  1
  C  C2  1  0.16705700  0.49570700  0.83383000  1
  C  C3  1  0.66688200  0.02313300  0.33356800  1
  C  C4  1  0.33294400  0.99570700  0.66617000  1
  C  C5  1  0.66747700  0.52127800  0.16545900  1
  C  C6  1  0.33269000  0.49645600  0.83417900  1
  C  C7  1  0.83252300  0.02127800  0.33454000  1
  C  C8  1  0.16731000  0.99645700  0.66582100  1
  C  C9  1  0.07832900  0.16101700  0.61685400  1
  C  C10  1  0.92180100  0.85535800  0.38457200  1
  C  C11  1  0.42167200  0.66101700  0.88314500  1
  C  C12  1  0.57819900  0.35535700  0.11542800  1
  C  C13  1  0.11758800  0.00760700  0.61642600  1
  C  C14  1  0.88191400  0.00783700  0.38457100  1
  C  C15  1  0.38241200  0.50760800  0.88357400  1
  C  C16  1  0.61808600  0.50783600  0.11542800  1
  C  C17  1  0.10948600  0.85840300  0.56946600  1
  C  C18  1  0.89071600  0.16000000  0.43043100  1
  C  C19  1  0.39051400  0.35840300  0.93053400  1
  C  C20  1  0.60928400  0.66000000  0.06956900  1
  C  C21  1  0.06308000  0.86042100  0.52309500  1
  C  C22  1  0.93747800  0.16015500  0.47646800  1
  C  C23  1  0.43692000  0.36042100  0.97690500  1
  C  C24  1  0.56252300  0.66015600  0.02353200  1
  C  C25  1  0.02408000  0.01234900  0.52273900  1
  C  C26  1  0.97709500  0.01058500  0.47639900  1
  C  C27  1  0.47592000  0.51234800  0.97726100  1
  C  C28  1  0.52290600  0.51058600  0.02360000  1
  C  C29  1  0.03142700  0.16323800  0.56963300  1
  C  C30  1  0.96927100  0.85814800  0.43045500  1
  C  C31  1  0.46857300  0.66323800  0.93036700  1
  C  C32  1  0.53073000  0.35814900  0.06954500  1
  C  C33  1  0.05516600  0.70755800  0.47773400  1
  C  C34  1  0.94414700  0.30931700  0.52343400  1
  C  C35  1  0.44483400  0.20755900  0.02226600  1
  C  C36  1  0.55585300  0.80931800  0.97656600  1
  C  C37  1  0.00836800  0.70543300  0.43203900  1
  C  C38  1  0.99024200  0.30987700  0.57022800  1
  C  C39  1  0.49163200  0.20543300  0.06796100  1
  C  C40  1  0.50975800  0.80987600  0.92977200  1
  C  C41  1  0.38501000  0.00479800  0.61397200  1
  C  C42  1  0.61478400  0.01409000  0.38572900  1
  C  C43  1  0.11499000  0.50479700  0.88602800  1
  C  C44  1  0.88521600  0.51409100  0.11427100  1
  C  C45  1  0.42738500  0.00746400  0.57181000  1
  C  C46  1  0.57239800  0.01145800  0.42787900  1
  C  C47  1  0.07261500  0.50746400  0.92819000  1
  C  C48  1  0.92760200  0.51145900  0.07212000  1
  C  C49  1  0.47867500  0.00898300  0.52089200  1
  C  C50  1  0.52110100  0.00996500  0.47879300  1
  C  C51  1  0.02132500  0.50898200  0.97910700  1
  C  C52  1  0.97889900  0.50996500  0.02120700  1
  C  C53  1  0.08560600  0.31211800  0.66988800  1
  C  C54  1  0.91620700  0.69585800  0.33447000  1
  C  C55  1  0.41439400  0.81211800  0.83011200  1
  C  C56  1  0.58379300  0.19585800  0.16553000  1
  N  N1  1  0.06527200  0.50699600  0.65854200  1
  N  N2  1  0.96598700  0.61948300  0.30422000  1
  N  N3  1  0.43472800  0.00699500  0.84145700  1
  N  N4  1  0.53401300  0.11948400  0.19578000  1
  O  O1  1  0.68716400  0.35346500  0.19273400  1
  O  O2  1  0.31320800  0.66575000  0.80755300  1
  O  O3  1  0.81283500  0.85346500  0.30726600  1
  O  O4  1  0.18679200  0.16575000  0.69244700  1
  O  O5  1  0.80722500  0.70049200  0.17740200  1
  O  O6  1  0.19264700  0.31814600  0.82243500  1
  O  O7  1  0.69277600  0.20049300  0.32259800  1
  O  O8  1  0.30735300  0.81814800  0.67756500  1
  O  O9  1  0.68975900  0.70054500  0.17404400  1
  O  O10  1  0.31011200  0.31777600  0.82547700  1
  O  O11  1  0.81024200  0.20054400  0.32595600  1
  O  O12  1  0.18988800  0.81777600  0.67452300  1
  O  O13  1  0.68738100  0.85448800  0.30389000  1
  O  O14  1  0.31226500  0.16435200  0.69562600  1
  O  O15  1  0.81262000  0.35449000  0.19611000  1
  O  O16  1  0.18773500  0.66435100  0.80437300  1
  O  O17  1  0.75136500  0.53388800  0.29020000  1
  O  O18  1  0.24892500  0.48475700  0.71027000  1
  O  O19  1  0.74863400  0.03388900  0.20979900  1
  O  O20  1  0.25107500  0.98475800  0.78973100  1
  O  O21  1  0.11050600  0.27158300  0.72395500  1
  O  O22  1  0.86923400  0.62719700  0.31856200  1
  O  O23  1  0.38949400  0.77158300  0.77604500  1
  O  O24  1  0.63076600  0.12719800  0.18143900  1
