# generated using pymatgen
data_Zn3H44C68(NO18)2
_symmetry_space_group_name_H-M   'P 1'
_cell_length_a   21.88306800
_cell_length_b   21.88338800
_cell_length_c   46.98503200
_cell_angle_alpha   90.00000000
_cell_angle_beta   90.00000000
_cell_angle_gamma   90.00000000
_symmetry_Int_Tables_number   1
_chemical_formula_structural   Zn3H44C68(NO18)2
_chemical_formula_sum   'Zn12 H176 C272 N8 O144'
_cell_volume   22499.98856970
_cell_formula_units_Z   4
loop_
 _symmetry_equiv_pos_site_id
 _symmetry_equiv_pos_as_xyz
  1  'x, y, z'
loop_
 _atom_site_type_symbol
 _atom_site_label
 _atom_site_symmetry_multiplicity
 _atom_site_fract_x
 _atom_site_fract_y
 _atom_site_fract_z
 _atom_site_occupancy
  Zn  Zn1  1  0.99978900  0.00008800  0.03077000  1
  Zn  Zn2  1  0.43139000  0.00180800  0.50092800  1
  Zn  Zn3  1  0.99806100  0.43122200  0.50080800  1
  Zn  Zn4  1  0.56978500  0.99853300  0.50074800  1
  Zn  Zn5  1  0.49979000  0.50009000  0.53077000  1
  Zn  Zn6  1  0.99979600  0.00021000  0.96631600  1
  Zn  Zn7  1  0.49979700  0.50021200  0.46631600  1
  Zn  Zn8  1  0.50148700  0.06963100  0.00086000  1
  Zn  Zn9  1  0.93139100  0.50180600  0.00092800  1
  Zn  Zn10  1  0.49805900  0.93122000  0.00080800  1
  Zn  Zn11  1  0.06978600  0.49853100  0.00074800  1
  Zn  Zn12  1  0.00148800  0.56963200  0.50086000  1
  H  H1  1  0.09237100  0.46942800  0.14296200  1
  H  H2  1  0.01364200  0.80414400  0.95299000  1
  H  H3  1  0.92893400  0.73425400  0.42798700  1
  H  H4  1  0.98352500  0.75330800  0.40039400  1
  H  H5  1  0.28735600  0.00624900  0.43341000  1
  H  H6  1  0.27002100  0.92575800  0.42951200  1
  H  H7  1  0.24954400  0.97896500  0.40155600  1
  H  H8  1  0.63573200  0.96558900  0.90264100  1
  H  H9  1  0.70152700  0.99028900  0.88240900  1
  H  H10  1  0.64105100  0.04402800  0.89059500  1
  H  H11  1  0.04440900  0.63456500  0.90305600  1
  H  H12  1  0.02127200  0.69983600  0.88205900  1
  H  H13  1  0.19589000  0.01107900  0.95289600  1
  H  H14  1  0.96703700  0.63938200  0.88956400  1
  H  H15  1  0.36525200  0.03973200  0.90268100  1
  H  H16  1  0.29988300  0.01570600  0.88197500  1
  H  H17  1  0.36038600  0.96180800  0.88989300  1
  H  H18  1  0.97032100  0.36424000  0.90244400  1
  H  H19  1  0.99559800  0.29832700  0.88245400  1
  H  H20  1  0.04916600  0.35872300  0.89099000  1
  H  H21  1  0.13573400  0.46559200  0.40264100  1
  H  H22  1  0.20152900  0.49029300  0.38240900  1
  H  H23  1  0.14105200  0.54403200  0.39059600  1
  H  H24  1  0.99432300  0.19571100  0.95365100  1
  H  H25  1  0.54440000  0.13456800  0.40305600  1
  H  H26  1  0.52126200  0.19983900  0.38205900  1
  H  H27  1  0.46702800  0.13938500  0.38956500  1
  H  H28  1  0.86525300  0.53973400  0.40268100  1
  H  H29  1  0.79988400  0.51570800  0.38197500  1
  H  H30  1  0.86038700  0.46180900  0.38989300  1
  H  H31  1  0.47030800  0.86424200  0.40244500  1
  H  H32  1  0.49558300  0.79833000  0.38245300  1
  H  H33  1  0.54915100  0.85872500  0.39098900  1
  H  H34  1  0.65217400  0.15823000  0.08115400  1
  H  H35  1  0.30431700  0.49150700  0.45367400  1
  H  H36  1  0.70603500  0.15907200  0.11042400  1
  H  H37  1  0.63014900  0.12836500  0.11561600  1
  H  H38  1  0.83463400  0.65120900  0.07735200  1
  H  H39  1  0.83040700  0.70492900  0.10661500  1
  H  H40  1  0.86197700  0.62955400  0.11232200  1
  H  H41  1  0.34689900  0.83895200  0.07939100  1
  H  H42  1  0.29271900  0.83673400  0.10851800  1
  H  H43  1  0.36837400  0.86766900  0.11414200  1
  H  H44  1  0.15396800  0.34613600  0.08316600  1
  H  H45  1  0.15285300  0.29180600  0.11224600  1
  H  H46  1  0.51363800  0.30414600  0.45299000  1
  H  H47  1  0.12263900  0.36789400  0.11738000  1
  H  H48  1  0.15217400  0.65822900  0.58115500  1
  H  H49  1  0.20603500  0.65907100  0.61042500  1
  H  H50  1  0.13014900  0.62836300  0.61561700  1
  H  H51  1  0.33464200  0.15121400  0.57735600  1
  H  H52  1  0.33041800  0.20493400  0.60661900  1
  H  H53  1  0.36198700  0.12955900  0.61232500  1
  H  H54  1  0.84689900  0.33895300  0.57939000  1
  H  H55  1  0.79271900  0.33673500  0.60851700  1
  H  H56  1  0.86837500  0.36767000  0.61414200  1
  H  H57  1  0.69589100  0.51108100  0.45289600  1
  H  H58  1  0.65398000  0.84614100  0.58316100  1
  H  H59  1  0.65287000  0.79181100  0.61224100  1
  H  H60  1  0.62265600  0.86790000  0.61737500  1
  H  H61  1  0.22849500  0.64441700  0.20014300  1
  H  H62  1  0.27401500  0.57546800  0.19772700  1
  H  H63  1  0.27894100  0.62340900  0.22908300  1
  H  H64  1  0.35616700  0.22684500  0.20051500  1
  H  H65  1  0.42508000  0.27244400  0.19819600  1
  H  H66  1  0.37710100  0.27707100  0.22954900  1
  H  H67  1  0.77317700  0.35823100  0.20017100  1
  H  H68  1  0.49431600  0.69571200  0.45365100  1
  H  H69  1  0.72740800  0.42705800  0.19802900  1
  H  H70  1  0.72291100  0.37870700  0.22926200  1
  H  H71  1  0.64205300  0.77133800  0.19980300  1
  H  H72  1  0.57314100  0.72571900  0.19756400  1
  H  H73  1  0.62144800  0.72088000  0.22880100  1
  H  H74  1  0.72849500  0.14441200  0.70014400  1
  H  H75  1  0.77401500  0.07546200  0.69772800  1
  H  H76  1  0.77894200  0.12340200  0.72908300  1
  H  H77  1  0.85616400  0.72684000  0.70051600  1
  H  H78  1  0.92507700  0.77244100  0.69819700  1
  H  H79  1  0.69384300  0.96022700  0.06539500  1
  H  H80  1  0.87709800  0.77706600  0.72955000  1
  H  H81  1  0.27317500  0.85823000  0.70017100  1
  H  H82  1  0.22740700  0.92705600  0.69802800  1
  H  H83  1  0.22291000  0.87870600  0.72926100  1
  H  H84  1  0.14205700  0.27133800  0.69980200  1
  H  H85  1  0.07314500  0.22571700  0.69756400  1
  H  H86  1  0.12145200  0.22087900  0.72880000  1
  H  H87  1  0.03312900  0.69525600  0.06548900  1
  H  H88  1  0.30473000  0.03729300  0.06520100  1
  H  H89  1  0.53145700  0.09119000  0.14305200  1
  H  H90  1  0.95645000  0.30614800  0.06500200  1
  H  H91  1  0.19384400  0.46022700  0.56539500  1
  H  H92  1  0.53313500  0.19525700  0.56548800  1
  H  H93  1  0.80473100  0.53729400  0.56520100  1
  H  H94  1  0.45646000  0.80615000  0.56500300  1
  H  H95  1  0.80656200  0.04575300  0.06230300  1
  H  H96  1  0.94727000  0.80739000  0.06022900  1
  H  H97  1  0.19213600  0.95180100  0.06094400  1
  H  H98  1  0.04152300  0.19299400  0.06292900  1
  H  H99  1  0.30656300  0.54575400  0.56230300  1
  H  H100  1  0.90844500  0.53452800  0.14314000  1
  H  H101  1  0.44727700  0.30739300  0.56023100  1
  H  H102  1  0.69213700  0.45180300  0.56094400  1
  H  H103  1  0.54153400  0.69299700  0.56292700  1
  H  H104  1  0.80724600  0.95964300  0.06426100  1
  H  H105  1  0.03306900  0.80860100  0.06414300  1
  H  H106  1  0.19136600  0.03780000  0.06376400  1
  H  H107  1  0.95532700  0.19274100  0.06376500  1
  H  H108  1  0.30724700  0.45964400  0.56426100  1
  H  H109  1  0.53307600  0.30860300  0.56414300  1
  H  H110  1  0.69136700  0.53780200  0.56376400  1
  H  H111  1  0.46615500  0.90733900  0.14304500  1
  H  H112  1  0.45533700  0.69274300  0.56376600  1
  H  H113  1  0.09269900  0.47066700  0.09118600  1
  H  H114  1  0.52976800  0.09189600  0.09127600  1
  H  H115  1  0.90724900  0.53202000  0.09139200  1
  H  H116  1  0.46826100  0.90650000  0.09129400  1
  H  H117  1  0.59269800  0.97066600  0.59118600  1
  H  H118  1  0.02976800  0.59189500  0.59127600  1
  H  H119  1  0.40724900  0.03202000  0.59139200  1
  H  H120  1  0.96826200  0.40649900  0.59129300  1
  H  H121  1  0.50460000  0.90478100  0.85693500  1
  H  H122  1  0.59237000  0.96942500  0.64296100  1
  H  H123  1  0.09677300  0.50194700  0.85643800  1
  H  H124  1  0.49725500  0.09765100  0.85663400  1
  H  H125  1  0.90389000  0.49504500  0.85713500  1
  H  H126  1  0.00460200  0.40478400  0.35693500  1
  H  H127  1  0.59677200  0.00195000  0.35643800  1
  H  H128  1  0.99725500  0.59765400  0.35663500  1
  H  H129  1  0.40388900  0.99505000  0.35713500  1
  H  H130  1  0.69019500  0.18412800  0.81181000  1
  H  H131  1  0.69151700  0.23837300  0.78268200  1
  H  H132  1  0.73660200  0.16909600  0.78067100  1
  H  H133  1  0.03145700  0.59118800  0.64305300  1
  H  H134  1  0.81641100  0.68764700  0.81210500  1
  H  H135  1  0.76219500  0.68917200  0.78296800  1
  H  H136  1  0.83145400  0.73430400  0.78104900  1
  H  H137  1  0.31248500  0.81731800  0.81166900  1
  H  H138  1  0.31110200  0.76340500  0.78240900  1
  H  H139  1  0.26578700  0.83256200  0.78064700  1
  H  H140  1  0.18293700  0.30971000  0.81138600  1
  H  H141  1  0.23690100  0.30848500  0.78214400  1
  H  H142  1  0.16768200  0.26328100  0.78027700  1
  H  H143  1  0.19019400  0.68413400  0.31181000  1
  H  H144  1  0.40844400  0.03452600  0.64314100  1
  H  H145  1  0.19151600  0.73837800  0.28268200  1
  H  H146  1  0.23660100  0.66910200  0.28067000  1
  H  H147  1  0.31641300  0.18765300  0.31210500  1
  H  H148  1  0.26219800  0.18917900  0.28296700  1
  H  H149  1  0.33145700  0.23431000  0.28104800  1
  H  H150  1  0.81248800  0.31732000  0.31167000  1
  H  H151  1  0.81110500  0.26340700  0.28241000  1
  H  H152  1  0.76578900  0.33256400  0.28064800  1
  H  H153  1  0.68293500  0.80971100  0.31138600  1
  H  H154  1  0.73689800  0.80848600  0.28214400  1
  H  H155  1  0.96615700  0.40733700  0.64304500  1
  H  H156  1  0.66767900  0.76328300  0.28027800  1
  H  H157  1  0.49242500  0.78784900  0.93320000  1
  H  H158  1  0.57263500  0.76958100  0.92898200  1
  H  H159  1  0.51869700  0.74982400  0.90121700  1
  H  H160  1  0.21500200  0.48843200  0.93238700  1
  H  H161  1  0.23510700  0.56801700  0.92746900  1
  H  H162  1  0.25307600  0.51262800  0.90006300  1
  H  H163  1  0.50895000  0.21557000  0.93259800  1
  H  H164  1  0.42893400  0.23425200  0.92798600  1
  H  H165  1  0.48352600  0.25330500  0.90039300  1
  H  H166  1  0.80431600  0.99150500  0.95367400  1
  H  H167  1  0.78735600  0.50624100  0.93341000  1
  H  H168  1  0.77002500  0.42575000  0.92951300  1
  H  H169  1  0.74954600  0.47895400  0.90155600  1
  H  H170  1  0.99242800  0.28785100  0.43320000  1
  H  H171  1  0.07263900  0.26958400  0.42898100  1
  H  H172  1  0.01870000  0.24982700  0.40121700  1
  H  H173  1  0.71500200  0.98843700  0.43238600  1
  H  H174  1  0.73510500  0.06802300  0.42746900  1
  H  H175  1  0.75307500  0.01263500  0.40006300  1
  H  H176  1  0.00895000  0.71557200  0.43259900  1
  C  C1  1  0.00201400  0.88068400  0.99796300  1
  C  C2  1  0.00031200  0.49871700  0.85402100  1
  C  C3  1  0.98207100  0.44738700  0.60245600  1
  C  C4  1  0.50021900  0.00182700  0.94485000  1
  C  C5  1  0.00166200  0.49953500  0.94485200  1
  C  C6  1  0.00022000  0.50183000  0.44485000  1
  C  C7  1  0.50166100  0.99953800  0.44485200  1
  C  C8  1  0.61914000  0.99671700  0.00099400  1
  C  C9  1  0.00416100  0.61954400  0.00063500  1
  C  C10  1  0.38039900  0.00412200  0.00071300  1
  C  C11  1  0.99698800  0.38080000  0.00108300  1
  C  C12  1  0.11914100  0.49671800  0.50099400  1
  C  C13  1  0.00091900  0.50120800  0.35402000  1
  C  C14  1  0.50416000  0.11954600  0.50063500  1
  C  C15  1  0.88040000  0.50412300  0.50071300  1
  C  C16  1  0.49698700  0.88080200  0.50108200  1
  C  C17  1  0.49932600  0.99901600  0.05652900  1
  C  C18  1  0.99952000  0.50080600  0.05653500  1
  C  C19  1  0.99932700  0.49901600  0.55652900  1
  C  C20  1  0.49951900  0.00080700  0.55653500  1
  C  C21  1  0.95758300  0.46985600  0.19119200  1
  C  C22  1  0.53084600  0.95606100  0.19112400  1
  C  C23  1  0.04365900  0.53350900  0.19120000  1
  C  C24  1  0.50031200  0.99872000  0.35402100  1
  C  C25  1  0.46727400  0.04219500  0.19126400  1
  C  C26  1  0.45758200  0.96985300  0.69119200  1
  C  C27  1  0.03084700  0.45605900  0.69112400  1
  C  C28  1  0.54365900  0.03350500  0.69120000  1
  C  C29  1  0.96727400  0.54219300  0.69126400  1
  C  C30  1  0.04572400  0.53237400  0.22079600  1
  C  C31  1  0.46832300  0.04398700  0.22086600  1
  C  C32  1  0.95580200  0.47055100  0.22079400  1
  C  C33  1  0.53006600  0.95401100  0.22072100  1
  C  C34  1  0.54572300  0.03237000  0.72079600  1
  C  C35  1  0.05187700  0.48419400  0.13172500  1
  C  C36  1  0.96832200  0.54398400  0.72086600  1
  C  C37  1  0.45580100  0.97054800  0.72079400  1
  C  C38  1  0.03006700  0.45400900  0.72072100  1
  C  C39  1  0.00082200  0.50137300  0.23564200  1
  C  C40  1  0.49926200  0.99893300  0.23564100  1
  C  C41  1  0.50082100  0.00136900  0.73564200  1
  C  C42  1  0.99926300  0.49893000  0.73564100  1
  C  C43  1  0.09221600  0.56154000  0.23564900  1
  C  C44  1  0.43912000  0.09034400  0.23579600  1
  C  C45  1  0.90949500  0.44109400  0.23565000  1
  C  C46  1  0.51657100  0.05078900  0.13177700  1
  C  C47  1  0.55941200  0.90752400  0.23550100  1
  C  C48  1  0.59221600  0.06153600  0.73564900  1
  C  C49  1  0.93911900  0.59034100  0.73579600  1
  C  C50  1  0.40949300  0.94109200  0.73565000  1
  C  C51  1  0.05941400  0.40752200  0.73550100  1
  C  C52  1  0.59098200  0.06344100  0.76512500  1
  C  C53  1  0.93719900  0.58887000  0.76527000  1
  C  C54  1  0.41096300  0.93884300  0.76511700  1
  C  C55  1  0.06164100  0.40874900  0.76497100  1
  C  C56  1  0.09098200  0.56344500  0.26512500  1
  C  C57  1  0.94878400  0.51957500  0.13183400  1
  C  C58  1  0.43719900  0.08887400  0.26527000  1
  C  C59  1  0.91096400  0.43884600  0.26511800  1
  C  C60  1  0.56163900  0.90875100  0.26497100  1
  C  C61  1  0.54631100  0.03157700  0.77999200  1
  C  C62  1  0.96909000  0.54410800  0.78006400  1
  C  C63  1  0.45566300  0.97065000  0.77998900  1
  C  C64  1  0.02992700  0.45340300  0.77991500  1
  C  C65  1  0.04631100  0.53158100  0.27999200  1
  C  C66  1  0.46909000  0.04411100  0.28006400  1
  C  C67  1  0.95566400  0.47065400  0.27998900  1
  C  C68  1  0.48107700  0.94773600  0.13177600  1
  C  C69  1  0.52992600  0.95340600  0.27991500  1
  C  C70  1  0.50093500  0.00119400  0.76514900  1
  C  C71  1  0.99942000  0.49881000  0.76514700  1
  C  C72  1  0.00093600  0.50119800  0.26514900  1
  C  C73  1  0.49942000  0.99881400  0.26514700  1
  C  C74  1  0.54615300  0.02984400  0.80959600  1
  C  C75  1  0.97096900  0.54382900  0.80966600  1
  C  C76  1  0.45590500  0.97222600  0.80959400  1
  C  C77  1  0.02847900  0.45351400  0.80952100  1
  C  C78  1  0.04615400  0.52984900  0.30959600  1
  C  C79  1  0.55187600  0.98419100  0.63172500  1
  C  C80  1  0.47096900  0.04383300  0.30966600  1
  C  C81  1  0.95590700  0.47222900  0.30959400  1
  C  C82  1  0.52847800  0.95351800  0.30952100  1
  C  C83  1  0.50370400  0.94705700  0.86880000  1
  C  C84  1  0.05479700  0.50146300  0.86853100  1
  C  C85  1  0.49796000  0.05554700  0.86863200  1
  C  C86  1  0.94629600  0.49596500  0.86890300  1
  C  C87  1  0.00370600  0.44706100  0.36880000  1
  C  C88  1  0.55479600  0.00146700  0.36853100  1
  C  C89  1  0.99796100  0.55555000  0.36863200  1
  C  C90  1  0.01657200  0.55078700  0.63177700  1
  C  C91  1  0.44629500  0.99597000  0.36890300  1
  C  C92  1  0.50464400  0.94669200  0.89824700  1
  C  C93  1  0.05584500  0.50279200  0.89797500  1
  C  C94  1  0.49660100  0.05632400  0.89807200  1
  C  C95  1  0.94619400  0.49501900  0.89834600  1
  C  C96  1  0.00464600  0.44669500  0.39824700  1
  C  C97  1  0.55584400  0.00279500  0.39797500  1
  C  C98  1  0.99660200  0.55632700  0.39807200  1
  C  C99  1  0.44619300  0.99502300  0.39834600  1
  C  C100  1  0.50048200  0.00160600  0.91324500  1
  C  C101  1  0.44878300  0.01957400  0.63183400  1
  C  C102  1  0.00122000  0.49917900  0.91324600  1
  C  C103  1  0.00048400  0.50160900  0.41324500  1
  C  C104  1  0.50121900  0.99918200  0.41324600  1
  C  C105  1  0.64083600  0.15692400  0.77482900  1
  C  C106  1  0.69312700  0.18922100  0.78836700  1
  C  C107  1  0.84367700  0.63859200  0.77504600  1
  C  C108  1  0.81134100  0.69076000  0.78866700  1
  C  C109  1  0.36146800  0.84510000  0.77467300  1
  C  C110  1  0.30938400  0.81248500  0.78821900  1
  C  C111  1  0.15528800  0.35902500  0.77446400  1
  C  C112  1  0.11926400  0.00246500  0.99796200  1
  C  C113  1  0.98107800  0.44773500  0.63177600  1
  C  C114  1  0.18780700  0.30678900  0.78793200  1
  C  C115  1  0.14083600  0.65692900  0.27482800  1
  C  C116  1  0.19312600  0.68922700  0.28836700  1
  C  C117  1  0.34367800  0.13859700  0.27504600  1
  C  C118  1  0.31134300  0.19076700  0.28866600  1
  C  C119  1  0.86147000  0.34510300  0.27467300  1
  C  C120  1  0.80938700  0.31248800  0.28822000  1
  C  C121  1  0.65528600  0.85902700  0.27446400  1
  C  C122  1  0.68780500  0.80679000  0.28793300  1
  C  C123  1  0.54090200  0.84447000  0.90402600  1
  C  C124  1  0.99993600  0.50131400  0.08766600  1
  C  C125  1  0.53051100  0.78405300  0.91772800  1
  C  C126  1  0.15904000  0.53719800  0.90304300  1
  C  C127  1  0.21943300  0.52585400  0.91660300  1
  C  C128  1  0.46070400  0.15883300  0.90339000  1
  C  C129  1  0.47118800  0.21937600  0.91695500  1
  C  C130  1  0.84445800  0.45791900  0.90438300  1
  C  C131  1  0.78396400  0.46784000  0.91808800  1
  C  C132  1  0.04090400  0.34447300  0.40402600  1
  C  C133  1  0.03051400  0.28405600  0.41772800  1
  C  C134  1  0.65903800  0.03720300  0.40304300  1
  C  C135  1  0.49904100  0.99918800  0.08766100  1
  C  C136  1  0.71943100  0.02586000  0.41660300  1
  C  C137  1  0.96070500  0.65883500  0.40339100  1
  C  C138  1  0.97118800  0.71937800  0.41695600  1
  C  C139  1  0.34445600  0.95792600  0.40438300  1
  C  C140  1  0.28396200  0.96784800  0.41808700  1
  C  C141  1  0.69893200  0.02078600  0.92549800  1
  C  C142  1  0.66727800  0.00417400  0.89855100  1
  C  C143  1  0.98723300  0.69808000  0.92457700  1
  C  C144  1  0.00613400  0.66590500  0.89810300  1
  C  C145  1  0.30184500  0.98340400  0.92478500  1
  C  C146  1  0.49993600  0.00131400  0.58766600  1
  C  C147  1  0.33389800  0.00124000  0.89811400  1
  C  C148  1  0.02464600  0.30099600  0.92575900  1
  C  C149  1  0.00899500  0.33260500  0.89867300  1
  C  C150  1  0.19893300  0.52078900  0.42549800  1
  C  C151  1  0.16727900  0.50417800  0.39855200  1
  C  C152  1  0.48722600  0.19808200  0.42457800  1
  C  C153  1  0.50612500  0.16590800  0.39810300  1
  C  C154  1  0.80184600  0.48340500  0.42478400  1
  C  C155  1  0.83390000  0.50124100  0.39811400  1
  C  C156  1  0.52463500  0.80099800  0.42575800  1
  C  C157  1  0.99904200  0.49918800  0.58766100  1
  C  C158  1  0.50898100  0.83260700  0.39867200  1
  C  C159  1  0.69064500  0.07169100  0.09174100  1
  C  C160  1  0.66827900  0.13325000  0.10027000  1
  C  C161  1  0.91954400  0.69112300  0.08952700  1
  C  C162  1  0.85771000  0.66766600  0.09691700  1
  C  C163  1  0.30782400  0.92487500  0.09057200  1
  C  C164  1  0.33044100  0.86313400  0.09866400  1
  C  C165  1  0.06656400  0.30835300  0.09269800  1
  C  C166  1  0.12790300  0.32997400  0.10195500  1
  C  C167  1  0.19064600  0.57169000  0.59174100  1
  C  C168  1  0.00042100  0.50193800  0.14663600  1
  C  C169  1  0.16827900  0.63324900  0.60027100  1
  C  C170  1  0.41955300  0.19112600  0.58952900  1
  C  C171  1  0.35772000  0.16767000  0.59692100  1
  C  C172  1  0.80782500  0.42487600  0.59057200  1
  C  C173  1  0.83044100  0.36313500  0.59866300  1
  C  C174  1  0.56657800  0.80835700  0.59269600  1
  C  C175  1  0.62791800  0.82997900  0.60195100  1
  C  C176  1  0.19763800  0.57030200  0.22577800  1
  C  C177  1  0.24801600  0.60564300  0.21231700  1
  C  C178  1  0.43028300  0.19584200  0.22611200  1
  C  C179  1  0.49883100  0.99925600  0.14663300  1
  C  C180  1  0.39491200  0.24629900  0.21273300  1
  C  C181  1  0.80401000  0.43212500  0.22595100  1
  C  C182  1  0.75363300  0.39678700  0.21248700  1
  C  C183  1  0.56818800  0.80210500  0.22561800  1
  C  C184  1  0.60344600  0.75176900  0.21207500  1
  C  C185  1  0.69763800  0.07029700  0.72577800  1
  C  C186  1  0.74801600  0.10563700  0.71231700  1
  C  C187  1  0.93028100  0.69583800  0.72611300  1
  C  C188  1  0.89490900  0.74629500  0.71273300  1
  C  C189  1  0.30400900  0.93212300  0.72595000  1
  C  C190  1  0.50042000  0.00193600  0.64663600  1
  C  C191  1  0.25363100  0.89678500  0.71248700  1
  C  C192  1  0.06819100  0.30210300  0.72561800  1
  C  C193  1  0.10345000  0.25176800  0.71207500  1
  C  C194  1  0.99883200  0.49925400  0.64663400  1
  C  C195  1  0.78059100  0.99843100  0.02376200  1
  C  C196  1  0.99759300  0.11962300  0.99908000  1
  C  C197  1  0.99872500  0.78125400  0.02287500  1
  C  C198  1  0.21862600  0.00090100  0.02296800  1
  C  C199  1  0.99667000  0.21929800  0.02380700  1
  C  C200  1  0.28059200  0.49843200  0.52376200  1
  C  C201  1  0.49872700  0.28125600  0.52287500  1
  C  C202  1  0.71862700  0.50090200  0.52296800  1
  C  C203  1  0.49667400  0.71930000  0.52380700  1
  C  C204  1  0.81350500  0.99692200  0.99894100  1
  C  C205  1  0.00300500  0.81387400  0.99803700  1
  C  C206  1  0.18607200  0.00347700  0.99806400  1
  C  C207  1  0.88032100  0.99784400  0.99908300  1
  C  C208  1  0.99680300  0.18644000  0.99896400  1
  C  C209  1  0.31350600  0.49692400  0.49894100  1
  C  C210  1  0.50300600  0.31387500  0.49803700  1
  C  C211  1  0.68607300  0.50347900  0.49806400  1
  C  C212  1  0.49680300  0.68644200  0.49896400  1
  C  C213  1  0.78029700  0.99467600  0.97369600  1
  C  C214  1  0.00829600  0.78037300  0.97297700  1
  C  C215  1  0.21963300  0.00695900  0.97295300  1
  C  C216  1  0.99633800  0.21970300  0.97371100  1
  C  C217  1  0.28029800  0.49467800  0.47369600  1
  C  C218  1  0.50201500  0.38068500  0.49796300  1
  C  C219  1  0.50829400  0.28037500  0.47297800  1
  C  C220  1  0.71963400  0.50696100  0.47295300  1
  C  C221  1  0.49633400  0.71970400  0.47371100  1
  C  C222  1  0.71621800  0.99496600  0.97413900  1
  C  C223  1  0.00846200  0.71631100  0.97359700  1
  C  C224  1  0.28369900  0.00699600  0.97359700  1
  C  C225  1  0.99675000  0.28378300  0.97418500  1
  C  C226  1  0.21621900  0.49496800  0.47413900  1
  C  C227  1  0.50845900  0.21631300  0.47359700  1
  C  C228  1  0.78370000  0.50699700  0.47359700  1
  C  C229  1  0.61926500  0.50246700  0.49796200  1
  C  C230  1  0.49674600  0.78378500  0.47418500  1
  C  C231  1  0.68553000  0.99549700  0.99993800  1
  C  C232  1  0.00511900  0.68592600  0.99942600  1
  C  C233  1  0.31402100  0.00519900  0.99947600  1
  C  C234  1  0.99578700  0.31441200  0.99999700  1
  C  C235  1  0.18553100  0.49549800  0.49993900  1
  C  C236  1  0.50511800  0.18592800  0.49942600  1
  C  C237  1  0.81402200  0.50520000  0.49947600  1
  C  C238  1  0.49578600  0.81441400  0.49999700  1
  C  C239  1  0.72005700  0.99759000  0.02414000  1
  C  C240  1  0.49759400  0.61962500  0.49908000  1
  C  C241  1  0.99970500  0.72072700  0.02343000  1
  C  C242  1  0.27915700  0.00165200  0.02353900  1
  C  C243  1  0.99606000  0.27983300  0.02420400  1
  C  C244  1  0.22005900  0.49759100  0.52414000  1
  C  C245  1  0.49970800  0.22072900  0.52343100  1
  C  C246  1  0.77915800  0.50165300  0.52353900  1
  C  C247  1  0.49606400  0.77983500  0.52420300  1
  C  C248  1  0.71538500  0.00091200  0.05551400  1
  C  C249  1  0.99329600  0.71640900  0.05471200  1
  C  C250  1  0.28337600  0.99700100  0.05489100  1
  C  C251  1  0.38032200  0.49784500  0.49908300  1
  C  C252  1  0.99756800  0.28441700  0.05561100  1
  C  C253  1  0.21538600  0.50091200  0.55551400  1
  C  C254  1  0.49330200  0.21641200  0.55471200  1
  C  C255  1  0.78337700  0.49700300  0.55489100  1
  C  C256  1  0.49757600  0.78442000  0.55561100  1
  C  C257  1  0.78671200  0.00168500  0.05520300  1
  C  C258  1  0.99214300  0.78772500  0.05419100  1
  C  C259  1  0.21205400  0.99619800  0.05435000  1
  C  C260  1  0.99799900  0.21308800  0.05527300  1
  C  C261  1  0.28671300  0.50168600  0.55520300  1
  C  C262  1  0.50091700  0.00120500  0.85402000  1
  C  C263  1  0.49214900  0.28772700  0.55419100  1
  C  C264  1  0.71205600  0.49620000  0.55435000  1
  C  C265  1  0.49800800  0.71309000  0.55527200  1
  C  C266  1  0.05194400  0.48472100  0.10239500  1
  C  C267  1  0.51580900  0.05106600  0.10244800  1
  C  C268  1  0.94823400  0.51836600  0.10251600  1
  C  C269  1  0.48207000  0.94738800  0.10245600  1
  C  C270  1  0.55194300  0.98472000  0.60239500  1
  C  C271  1  0.01580900  0.55106500  0.60244800  1
  C  C272  1  0.44823300  0.01836600  0.60251600  1
  N  N1  1  0.00053300  0.50181200  0.17706700  1
  N  N2  1  0.49898200  0.99917700  0.17706500  1
  N  N3  1  0.50053300  0.00180800  0.67706700  1
  N  N4  1  0.99898300  0.49917500  0.67706500  1
  N  N5  1  0.50102900  0.00103100  0.82365100  1
  N  N6  1  0.99985800  0.49865200  0.82365100  1
  N  N7  1  0.00103000  0.50103500  0.32365100  1
  N  N8  1  0.49985800  0.99865500  0.32365000  1
  O  O1  1  0.99991900  0.90926400  0.02249300  1
  O  O2  1  0.09095400  0.00064100  0.97338100  1
  O  O3  1  0.94508900  0.73450300  0.92377600  1
  O  O4  1  0.31715100  0.01081800  0.94953500  1
  O  O5  1  0.26535800  0.94128900  0.92438000  1
  O  O6  1  0.99552500  0.31699200  0.94998600  1
  O  O7  1  0.06651300  0.26422600  0.92619100  1
  O  O8  1  0.18309300  0.49242600  0.44994200  1
  O  O9  1  0.23559300  0.56276100  0.42560600  1
  O  O10  1  0.51369700  0.18294100  0.44957200  1
  O  O11  1  0.44508200  0.23450500  0.42377700  1
  O  O12  1  0.81715200  0.51081900  0.44953500  1
  O  O13  1  0.99947900  0.09092500  0.97458200  1
  O  O14  1  0.76535800  0.44129100  0.42438000  1
  O  O15  1  0.49551700  0.81699400  0.44998600  1
  O  O16  1  0.56650200  0.76422800  0.42618900  1
  O  O17  1  0.69145600  0.05585600  0.06403100  1
  O  O18  1  0.70906300  0.03617200  0.10979900  1
  O  O19  1  0.93775600  0.69218000  0.06213600  1
  O  O20  1  0.95320400  0.71004300  0.10823300  1
  O  O21  1  0.30725100  0.94174500  0.06299400  1
  O  O22  1  0.28904700  0.95963100  0.10887000  1
  O  O23  1  0.05214200  0.30801200  0.06482100  1
  O  O24  1  0.90913900  0.99702200  0.97460200  1
  O  O25  1  0.02998000  0.29002600  0.11031000  1
  O  O26  1  0.19145700  0.55585600  0.56403200  1
  O  O27  1  0.20906400  0.53617100  0.60979900  1
  O  O28  1  0.43776200  0.19218300  0.56213800  1
  O  O29  1  0.45321500  0.21004600  0.60823500  1
  O  O30  1  0.80725200  0.44174600  0.56299400  1
  O  O31  1  0.78904800  0.45963300  0.60887000  1
  O  O32  1  0.55215100  0.80801500  0.56481900  1
  O  O33  1  0.52999600  0.79003000  0.61030800  1
  O  O34  1  0.13911200  0.58747800  0.22150400  1
  O  O35  1  0.50305900  0.40911400  0.47339700  1
  O  O36  1  0.20936300  0.52506600  0.23991800  1
  O  O37  1  0.41316300  0.13733800  0.22172800  1
  O  O38  1  0.47549400  0.20749000  0.24028300  1
  O  O39  1  0.86255400  0.41519900  0.22151900  1
  O  O40  1  0.79225700  0.47714400  0.24023500  1
  O  O41  1  0.58523200  0.86065100  0.22129300  1
  O  O42  1  0.52312900  0.79032400  0.23987000  1
  O  O43  1  0.63911200  0.08747300  0.72150400  1
  O  O44  1  0.70936200  0.02506100  0.73991800  1
  O  O45  1  0.91316200  0.63733400  0.72172900  1
  O  O46  1  0.59095500  0.50064300  0.47338100  1
  O  O47  1  0.97549100  0.70748700  0.74028300  1
  O  O48  1  0.36255300  0.91519700  0.72151900  1
  O  O49  1  0.29225600  0.97714200  0.74023400  1
  O  O50  1  0.08523500  0.36064900  0.72129200  1
  O  O51  1  0.02313300  0.29032200  0.73986900  1
  O  O52  1  0.49948000  0.59092700  0.47458200  1
  O  O53  1  0.40914000  0.49702400  0.47460200  1
  O  O54  1  0.50025400  0.05432800  0.95835000  1
  O  O55  1  0.94945000  0.49981600  0.95864100  1
  O  O56  1  0.49992300  0.94951000  0.95854400  1
  O  O57  1  0.09056300  0.00307900  0.02248000  1
  O  O58  1  0.05426100  0.49964300  0.95825700  1
  O  O59  1  0.00025500  0.55433000  0.45835000  1
  O  O60  1  0.44944900  0.99981900  0.45864100  1
  O  O61  1  0.99992500  0.44951200  0.45854300  1
  O  O62  1  0.55426000  0.99964500  0.45825700  1
  O  O63  1  0.59193100  0.05001100  0.00021000  1
  O  O64  1  0.95090100  0.59227600  0.00145500  1
  O  O65  1  0.40760900  0.95082200  0.00139400  1
  O  O66  1  0.05024900  0.40806700  0.00015600  1
  O  O67  1  0.09193200  0.55001200  0.50021000  1
  O  O68  1  0.99673200  0.09130300  0.02368200  1
  O  O69  1  0.45090100  0.09227800  0.50145500  1
  O  O70  1  0.90761000  0.45082300  0.50139400  1
  O  O71  1  0.55024800  0.90806900  0.50015600  1
  O  O72  1  0.58977000  0.94456800  0.00173700  1
  O  O73  1  0.05634400  0.59022900  0.99988100  1
  O  O74  1  0.40977500  0.05627100  0.00006100  1
  O  O75  1  0.94481800  0.41011400  0.00192800  1
  O  O76  1  0.08977000  0.44456900  0.50173700  1
  O  O77  1  0.55634400  0.09023100  0.49988100  1
  O  O78  1  0.90977600  0.55627200  0.50006100  1
  O  O79  1  0.90852300  0.99985500  0.02369200  1
  O  O80  1  0.44481700  0.91011600  0.50192800  1
  O  O81  1  0.49978300  0.05171900  0.04316200  1
  O  O82  1  0.94654700  0.50088100  0.04344900  1
  O  O83  1  0.49912400  0.94614900  0.04334700  1
  O  O84  1  0.05211200  0.50037200  0.04307200  1
  O  O85  1  0.99978400  0.55171900  0.54316200  1
  O  O86  1  0.44654700  0.00088300  0.54344900  1
  O  O87  1  0.99912500  0.44614900  0.54334700  1
  O  O88  1  0.55211200  0.00037300  0.54307200  1
  O  O89  1  0.91797900  0.43570100  0.17619600  1
  O  O90  1  0.49992000  0.40926600  0.52249400  1
  O  O91  1  0.56499200  0.91655000  0.17607100  1
  O  O92  1  0.08317000  0.56781700  0.17622700  1
  O  O93  1  0.43303700  0.08186600  0.17634700  1
  O  O94  1  0.41797800  0.93569900  0.67619600  1
  O  O95  1  0.06499400  0.41654900  0.67607000  1
  O  O96  1  0.58316900  0.06781300  0.67622700  1
  O  O97  1  0.93303700  0.58186400  0.67634700  1
  O  O98  1  0.59167900  0.05521400  0.82472900  1
  O  O99  1  0.94576600  0.58935100  0.82486100  1
  O  O100  1  0.41039100  0.94682500  0.82472200  1
  O  O101  1  0.59056400  0.50308100  0.52248000  1
  O  O102  1  0.05391500  0.40791700  0.82458300  1
  O  O103  1  0.09167900  0.55521900  0.32472900  1
  O  O104  1  0.44576600  0.08935500  0.32486100  1
  O  O105  1  0.91039200  0.44682800  0.32472200  1
  O  O106  1  0.55391300  0.90792000  0.32458300  1
  O  O107  1  0.63320300  0.09646400  0.77926800  1
  O  O108  1  0.60417300  0.18553700  0.76052900  1
  O  O109  1  0.90413800  0.63095400  0.77948400  1
  O  O110  1  0.81509400  0.60202900  0.76067800  1
  O  O111  1  0.36894800  0.90553300  0.77924800  1
  O  O112  1  0.49673300  0.59130500  0.52368200  1
  O  O113  1  0.39810600  0.81676500  0.76024000  1
  O  O114  1  0.09485800  0.36655400  0.77903100  1
  O  O115  1  0.18369900  0.39573800  0.76010500  1
  O  O116  1  0.13320300  0.59646900  0.27926700  1
  O  O117  1  0.10417200  0.68554200  0.26052900  1
  O  O118  1  0.40414000  0.13095800  0.27948300  1
  O  O119  1  0.31509500  0.10203500  0.26067800  1
  O  O120  1  0.86894900  0.40553600  0.27924800  1
  O  O121  1  0.89810800  0.31676800  0.26024000  1
  O  O122  1  0.59485600  0.86655700  0.27903100  1
  O  O123  1  0.40852400  0.49985700  0.52369200  1
  O  O124  1  0.68369700  0.89573900  0.26010500  1
  O  O125  1  0.50722300  0.89303100  0.91235100  1
  O  O126  1  0.58262400  0.85047100  0.88704200  1
  O  O127  1  0.10984000  0.50500400  0.91183000  1
  O  O128  1  0.15375300  0.57845500  0.88576400  1
  O  O129  1  0.49393100  0.11019100  0.91200600  1
  O  O130  1  0.41927500  0.15284900  0.88625100  1
  O  O131  1  0.89264600  0.49231700  0.91252700  1
  O  O132  1  0.85091000  0.41598700  0.88754800  1
  O  O133  1  0.00722600  0.39303300  0.41235000  1
  O  O134  1  0.00305900  0.90911200  0.97339600  1
  O  O135  1  0.08262600  0.35047500  0.38704200  1
  O  O136  1  0.60983900  0.00500700  0.41183000  1
  O  O137  1  0.65375000  0.07846000  0.38576500  1
  O  O138  1  0.99393100  0.61019400  0.41200600  1
  O  O139  1  0.91927500  0.65285100  0.38625100  1
  O  O140  1  0.39264500  0.99232200  0.41252700  1
  O  O141  1  0.35090600  0.91599400  0.38754700  1
  O  O142  1  0.68309200  0.99242300  0.94994100  1
  O  O143  1  0.73559300  0.06275800  0.92560500  1
  O  O144  1  0.01370200  0.68293900  0.94957200  1
