# generated using pymatgen
data_Zn3H44C72(NO9)2
_symmetry_space_group_name_H-M   'P 1'
_cell_length_a   21.86918600
_cell_length_b   21.86934700
_cell_length_c   46.89209200
_cell_angle_alpha   90.00000000
_cell_angle_beta   90.00000000
_cell_angle_gamma   90.00000000
_symmetry_Int_Tables_number   1
_chemical_formula_structural   Zn3H44C72(NO9)2
_chemical_formula_sum   'Zn12 H176 C288 N8 O72'
_cell_volume   22426.83781045
_cell_formula_units_Z   4
loop_
 _symmetry_equiv_pos_site_id
 _symmetry_equiv_pos_as_xyz
  1  'x, y, z'
loop_
 _atom_site_type_symbol
 _atom_site_label
 _atom_site_symmetry_multiplicity
 _atom_site_fract_x
 _atom_site_fract_y
 _atom_site_fract_z
 _atom_site_occupancy
  Zn  Zn1  1  0.00011300  0.99984500  0.03592800  1
  Zn  Zn2  1  0.49970500  0.49991600  0.53594000  1
  Zn  Zn3  1  0.00027900  0.00028500  0.97132500  1
  Zn  Zn4  1  0.50029600  0.49983900  0.47133700  1
  Zn  Zn5  1  0.50014600  0.06919400  0.00067900  1
  Zn  Zn6  1  0.93035900  0.50001100  0.00055100  1
  Zn  Zn7  1  0.50023800  0.93079500  0.00093200  1
  Zn  Zn8  1  0.06875700  0.50017300  0.00107200  1
  Zn  Zn9  1  0.00005000  0.56918000  0.50094400  1
  Zn  Zn10  1  0.43081500  0.99993600  0.50095800  1
  Zn  Zn11  1  0.00013300  0.43077700  0.50067700  1
  Zn  Zn12  1  0.56921500  0.00009100  0.50065800  1
  H  H1  1  0.90414100  0.20262800  0.08208900  1
  H  H2  1  0.79502000  0.90368300  0.08152500  1
  H  H3  1  0.09845300  0.79128200  0.08030600  1
  H  H4  1  0.20589400  0.09801700  0.08131400  1
  H  H5  1  0.40348800  0.70687100  0.57964300  1
  H  H6  1  0.29318300  0.40289600  0.58093200  1
  H  H7  1  0.59785600  0.29548000  0.58279200  1
  H  H8  1  0.70458800  0.59721100  0.58159300  1
  H  H9  1  0.87804000  0.10287700  0.10307800  1
  H  H10  1  0.89394100  0.87696100  0.10318700  1
  H  H11  1  0.12400400  0.88995400  0.10251400  1
  H  H12  1  0.10620100  0.12305000  0.10264200  1
  H  H13  1  0.37903100  0.60741100  0.60135000  1
  H  H14  1  0.39220800  0.37712600  0.60274200  1
  H  H15  1  0.62485200  0.39454900  0.60423100  1
  H  H16  1  0.60500900  0.62288700  0.60287300  1
  H  H17  1  0.82046900  0.02738900  0.07505800  1
  H  H18  1  0.97021900  0.81950600  0.07557100  1
  H  H19  1  0.18073900  0.96751600  0.07535400  1
  H  H20  1  0.02969900  0.17987900  0.07488800  1
  H  H21  1  0.32163900  0.53051500  0.57407400  1
  H  H22  1  0.46896700  0.31984500  0.57533600  1
  H  H23  1  0.68175000  0.47070900  0.57630900  1
  H  H24  1  0.52880500  0.67992700  0.57503500  1
  H  H25  1  0.81476900  0.15147000  0.00502300  1
  H  H26  1  0.84855100  0.81515900  0.00459900  1
  H  H27  1  0.18669500  0.84764800  0.00374300  1
  H  H28  1  0.15264000  0.18697200  0.00444300  1
  H  H29  1  0.31298000  0.65256700  0.50333300  1
  H  H30  1  0.34758200  0.31375100  0.50428700  1
  H  H31  1  0.68513700  0.34859400  0.50549100  1
  H  H32  1  0.65182300  0.68592800  0.50459700  1
  H  H33  1  0.87187100  0.22714200  0.03322400  1
  H  H34  1  0.77212300  0.87220200  0.03237100  1
  H  H35  1  0.13054700  0.76986300  0.03110500  1
  H  H36  1  0.22937700  0.13073900  0.03241800  1
  H  H37  1  0.36973400  0.72970100  0.53082100  1
  H  H38  1  0.27061900  0.37050400  0.53188700  1
  H  H39  1  0.62865200  0.27227200  0.53358500  1
  H  H40  1  0.72822900  0.62942000  0.53262400  1
  H  H41  1  0.80858300  0.93513000  0.96988800  1
  H  H42  1  0.06533000  0.80878900  0.97078800  1
  H  H43  1  0.19128300  0.06777300  0.97215200  1
  H  H44  1  0.93298700  0.19147700  0.97118800  1
  H  H45  1  0.30851900  0.43274500  0.47069100  1
  H  H46  1  0.56744700  0.30891000  0.47202900  1
  H  H47  1  0.69119700  0.56555600  0.47141800  1
  H  H48  1  0.43488000  0.69158400  0.47007100  1
  H  H49  1  0.71285800  0.84230100  0.98047600  1
  H  H50  1  0.15768200  0.71413200  0.98085700  1
  H  H51  1  0.28321300  0.15964400  0.98337200  1
  H  H52  1  0.84057200  0.28431900  0.98295500  1
  H  H53  1  0.21612300  0.34066200  0.48217600  1
  H  H54  1  0.65943900  0.21643300  0.48349500  1
  H  H55  1  0.78627500  0.65814200  0.48182000  1
  H  H56  1  0.34218500  0.78648300  0.48051500  1
  H  H57  1  0.66900400  0.78156700  0.94135600  1
  H  H58  1  0.21874400  0.67071700  0.94176100  1
  H  H59  1  0.32647900  0.22421800  0.94551500  1
  H  H60  1  0.77628200  0.32796500  0.94506400  1
  H  H61  1  0.17213300  0.27660300  0.44429800  1
  H  H62  1  0.72404500  0.17312200  0.44564500  1
  H  H63  1  0.82935200  0.71963100  0.44277900  1
  H  H64  1  0.28119200  0.83022500  0.44146800  1
  H  H65  1  0.62547200  0.83320100  0.89938600  1
  H  H66  1  0.16746200  0.62643500  0.89986800  1
  H  H67  1  0.37350200  0.17678200  0.90329300  1
  H  H68  1  0.82406000  0.37431300  0.90276300  1
  H  H69  1  0.12494200  0.32462600  0.40226100  1
  H  H70  1  0.67662400  0.12659400  0.40330000  1
  H  H71  1  0.87283300  0.66880400  0.40058400  1
  H  H72  1  0.33255000  0.87445400  0.39958300  1
  H  H73  1  0.62609400  0.94549100  0.89658300  1
  H  H74  1  0.05517100  0.62590600  0.89712300  1
  H  H75  1  0.37681600  0.06480200  0.89896900  1
  H  H76  1  0.93606500  0.37661100  0.89838900  1
  H  H77  1  0.12216000  0.43666300  0.39814000  1
  H  H78  1  0.56465000  0.12379500  0.39884200  1
  H  H79  1  0.87290200  0.55655500  0.39747800  1
  H  H80  1  0.44484000  0.87461200  0.39679400  1
  H  H81  1  0.66666667  0.00619300  0.93632000  1
  H  H82  1  0.99414400  0.66598400  0.93683900  1
  H  H83  1  0.33681100  0.00021500  0.93745600  1
  H  H84  1  0.00036000  0.33627000  0.93691600  1
  H  H85  1  0.16285900  0.50072100  0.43666300  1
  H  H86  1  0.50003600  0.16381200  0.43732300  1
  H  H87  1  0.83317000  0.49509100  0.43712900  1
  H  H88  1  0.50579900  0.83420300  0.43646400  1
  H  H89  1  0.12084100  0.58965900  0.22481000  1
  H  H90  1  0.41036700  0.12480900  0.22507200  1
  H  H91  1  0.87332900  0.41218000  0.22533600  1
  H  H92  1  0.58778300  0.87725000  0.22506700  1
  H  H93  1  0.62519800  0.08762900  0.72534000  1
  H  H94  1  0.91384000  0.62312700  0.72489400  1
  H  H95  1  0.37758100  0.91029600  0.72479700  1
  H  H96  1  0.09122600  0.37554900  0.72525300  1
  H  H97  1  0.62623400  0.08542900  0.77678100  1
  H  H98  1  0.91579100  0.62485200  0.77633100  1
  H  H99  1  0.37604300  0.91174400  0.77624100  1
  H  H100  1  0.08953300  0.37470200  0.77670000  1
  H  H101  1  0.12233300  0.58825500  0.27625200  1
  H  H102  1  0.41172200  0.12575400  0.27652000  1
  H  H103  1  0.87224100  0.41443100  0.27677700  1
  H  H104  1  0.58549100  0.87562100  0.27650200  1
  H  H105  1  0.49630900  0.90075200  0.85822300  1
  H  H106  1  0.09998900  0.49599300  0.85840400  1
  H  H107  1  0.50481500  0.09584200  0.85825300  1
  H  H108  1  0.90489700  0.50445700  0.85808700  1
  H  H109  1  0.99362200  0.40412600  0.35826900  1
  H  H110  1  0.59575600  0.99611300  0.35824500  1
  H  H111  1  0.00210300  0.59921700  0.35822200  1
  H  H112  1  0.40066300  0.00456800  0.35823400  1
  H  H113  1  0.49347400  0.90063500  0.90992200  1
  H  H114  1  0.09969600  0.49354200  0.91011000  1
  H  H115  1  0.50697100  0.09593000  0.90995100  1
  H  H116  1  0.90439800  0.50699100  0.90977900  1
  H  H117  1  0.99183700  0.40404400  0.40997000  1
  H  H118  1  0.59585300  0.99352800  0.40993500  1
  H  H119  1  0.00531600  0.59934000  0.40991500  1
  H  H120  1  0.40055300  0.00697400  0.40994200  1
  H  H121  1  0.09040400  0.47155000  0.14341200  1
  H  H122  1  0.52821600  0.09487900  0.14341800  1
  H  H123  1  0.90356100  0.52845600  0.14322600  1
  H  H124  1  0.47119500  0.90807200  0.14321500  1
  H  H125  1  0.59509400  0.97115100  0.64332500  1
  H  H126  1  0.03078000  0.59202400  0.64314400  1
  H  H127  1  0.40830500  0.02823700  0.64330900  1
  H  H128  1  0.97373200  0.40522600  0.64349400  1
  H  H129  1  0.09144400  0.47395300  0.09166200  1
  H  H130  1  0.52584800  0.09591800  0.09165200  1
  H  H131  1  0.90284100  0.52550800  0.09146900  1
  H  H132  1  0.47416500  0.90735100  0.09147300  1
  H  H133  1  0.59608000  0.97410300  0.59157200  1
  H  H134  1  0.02758500  0.59262400  0.59140300  1
  H  H135  1  0.40753000  0.02585300  0.59155400  1
  H  H136  1  0.97587200  0.40406700  0.59172900  1
  H  H137  1  0.70905400  0.00602400  0.06594600  1
  H  H138  1  0.62863700  0.01953500  0.06060700  1
  H  H139  1  0.63784900  0.11944700  0.08559900  1
  H  H140  1  0.66053900  0.05581100  0.10795200  1
  H  H141  1  0.71791100  0.10450500  0.09187600  1
  H  H142  1  0.99184200  0.70835100  0.06624500  1
  H  H143  1  0.97838600  0.62801600  0.06066000  1
  H  H144  1  0.87788100  0.63701300  0.08510100  1
  H  H145  1  0.94086800  0.65966100  0.10786100  1
  H  H146  1  0.89254800  0.71705400  0.09156200  1
  H  H147  1  0.29255300  0.98803100  0.06630700  1
  H  H148  1  0.37285500  0.97499200  0.06039000  1
  H  H149  1  0.36465700  0.87336800  0.08353700  1
  H  H150  1  0.34083700  0.93446600  0.10713700  1
  H  H151  1  0.28430600  0.88652800  0.08995400  1
  H  H152  1  0.00971100  0.29191100  0.06603500  1
  H  H153  1  0.02289700  0.37228600  0.06038500  1
  H  H154  1  0.12384400  0.36380900  0.08419600  1
  H  H155  1  0.06193900  0.33998100  0.10733000  1
  H  H156  1  0.11032600  0.28344800  0.09042100  1
  H  H157  1  0.20898400  0.51073500  0.56549500  1
  H  H158  1  0.12855500  0.52397900  0.56005800  1
  H  H159  1  0.13756900  0.62524400  0.58354300  1
  H  H160  1  0.16166300  0.56362300  0.60678300  1
  H  H161  1  0.21800800  0.61167200  0.58953000  1
  H  H162  1  0.48871200  0.20764400  0.56632000  1
  H  H163  1  0.47540000  0.12734600  0.56050600  1
  H  H164  1  0.37407000  0.13590900  0.58390900  1
  H  H165  1  0.43551700  0.15963900  0.60732800  1
  H  H166  1  0.38754100  0.21625600  0.59022300  1
  H  H167  1  0.79248400  0.49260200  0.56678000  1
  H  H168  1  0.87277500  0.47925700  0.56097200  1
  H  H169  1  0.86432900  0.37890900  0.58557500  1
  H  H170  1  0.84188400  0.44199500  0.60831900  1
  H  H171  1  0.78435400  0.39345100  0.59227100  1
  H  H172  1  0.50698800  0.79116400  0.56592900  1
  H  H173  1  0.52028000  0.87158600  0.56051000  1
  H  H174  1  0.62053700  0.86263400  0.58521300  1
  H  H175  1  0.55725500  0.83984300  0.60776500  1
  H  H176  1  0.60586500  0.78256100  0.59157100  1
  C  C1  1  0.99915500  0.88052400  0.00399000  1
  C  C2  1  0.11973800  0.99908900  0.00424000  1
  C  C3  1  0.00123900  0.11961500  0.00328700  1
  C  C4  1  0.88065200  0.00100400  0.00304100  1
  C  C5  1  0.49899600  0.38034900  0.50425000  1
  C  C6  1  0.61955000  0.49891700  0.50441300  1
  C  C7  1  0.50108100  0.61943200  0.50305100  1
  C  C8  1  0.38047300  0.50080200  0.50289200  1
  C  C9  1  0.50119200  0.99866700  0.76549700  1
  C  C10  1  0.00264300  0.49968800  0.76550200  1
  C  C11  1  0.99724000  0.50125600  0.26550100  1
  C  C12  1  0.49870400  0.00076000  0.26549700  1
  C  C13  1  0.50011400  0.99828800  0.94497200  1
  C  C14  1  0.00174300  0.50020900  0.94498100  1
  C  C15  1  0.99917000  0.50167900  0.44497800  1
  C  C16  1  0.49823800  0.00019800  0.44497500  1
  C  C17  1  0.62005300  0.00167400  0.00069800  1
  C  C18  1  0.99781300  0.61995800  0.00080300  1
  C  C19  1  0.38033300  0.99837200  0.00088800  1
  C  C20  1  0.00124600  0.38024100  0.00079700  1
  C  C21  1  0.11994300  0.50159500  0.50042300  1
  C  C22  1  0.49833500  0.11986700  0.50093800  1
  C  C23  1  0.88022500  0.49830600  0.50117400  1
  C  C24  1  0.50175600  0.88014900  0.50065500  1
  C  C25  1  0.86375500  0.11370700  0.08160100  1
  C  C26  1  0.88381100  0.86298900  0.08159100  1
  C  C27  1  0.13814600  0.88051300  0.08087500  1
  C  C28  1  0.11654600  0.13745300  0.08113000  1
  C  C29  1  0.36416500  0.61747000  0.57987700  1
  C  C30  1  0.38225400  0.36283200  0.58117400  1
  C  C31  1  0.63849400  0.38429100  0.58260200  1
  C  C32  1  0.61544500  0.63711900  0.58134600  1
  C  C33  1  0.83118200  0.07147600  0.06592800  1
  C  C34  1  0.92647600  0.83047500  0.06614600  1
  C  C35  1  0.17023300  0.92390500  0.06568100  1
  C  C36  1  0.07374200  0.16958900  0.06560400  1
  C  C37  1  0.33173600  0.57443900  0.56461800  1
  C  C38  1  0.42519700  0.33044300  0.56584400  1
  C  C39  1  0.67071200  0.42688700  0.56698600  1
  C  C40  1  0.57281200  0.66939500  0.56577500  1
  C  C41  1  0.81341600  0.08500800  0.03839700  1
  C  C42  1  0.91382400  0.81309400  0.03847000  1
  C  C43  1  0.18774700  0.91217800  0.03793200  1
  C  C44  1  0.08662000  0.18744000  0.03801300  1
  C  C45  1  0.31329100  0.58696400  0.53707700  1
  C  C46  1  0.41280300  0.31270300  0.53819200  1
  C  C47  1  0.68764700  0.41409400  0.53926300  1
  C  C48  1  0.58582700  0.68705600  0.53817200  1
  C  C49  1  0.82812000  0.14097600  0.02667100  1
  C  C50  1  0.85833100  0.82817900  0.02636300  1
  C  C51  1  0.17344400  0.85677400  0.02553800  1
  C  C52  1  0.14259600  0.17344400  0.02611300  1
  C  C53  1  0.32698100  0.64280600  0.52496600  1
  C  C54  1  0.35720900  0.32713700  0.52601800  1
  C  C55  1  0.67245400  0.35850100  0.52728600  1
  C  C56  1  0.64171000  0.67261400  0.52628900  1
  C  C57  1  0.86036400  0.18331800  0.04242300  1
  C  C58  1  0.81556400  0.86038600  0.04187900  1
  C  C59  1  0.14173800  0.81324900  0.04082100  1
  C  C60  1  0.18553500  0.14169300  0.04173600  1
  C  C61  1  0.35902100  0.68597100  0.54032000  1
  C  C62  1  0.31414700  0.35918500  0.54143200  1
  C  C63  1  0.64055200  0.31579800  0.54297900  1
  C  C64  1  0.68446700  0.64070700  0.54194700  1
  C  C65  1  0.87841700  0.16959300  0.06983900  1
  C  C66  1  0.82838800  0.87800500  0.06945100  1
  C  C67  1  0.12380300  0.82522800  0.06843200  1
  C  C68  1  0.17240100  0.12340500  0.06918100  1
  C  C69  1  0.37789500  0.67319700  0.56771500  1
  C  C70  1  0.32677200  0.37729700  0.56895400  1
  C  C71  1  0.62333200  0.32878700  0.57058900  1
  C  C72  1  0.67123500  0.62269800  0.56942200  1
  C  C73  1  0.71812500  0.03885000  0.02065400  1
  C  C74  1  0.96026100  0.71788400  0.02077500  1
  C  C75  1  0.28261400  0.95946000  0.02041800  1
  C  C76  1  0.03978400  0.28239200  0.02034500  1
  C  C77  1  0.21798700  0.54019600  0.51971000  1
  C  C78  1  0.45957300  0.21760500  0.52053000  1
  C  C79  1  0.78248600  0.46075700  0.52135800  1
  C  C80  1  0.53920300  0.78210700  0.52052800  1
  C  C81  1  0.68720100  0.00147000  0.00155100  1
  C  C82  1  0.99799300  0.68710900  0.00176300  1
  C  C83  1  0.31320600  0.99846700  0.00192000  1
  C  C84  1  0.00118300  0.31311800  0.00171500  1
  C  C85  1  0.18707500  0.50149700  0.50118900  1
  C  C86  1  0.49842300  0.18698800  0.50196400  1
  C  C87  1  0.81308200  0.49850900  0.50229400  1
  C  C88  1  0.50159800  0.81299200  0.50150900  1
  C  C89  1  0.72034100  0.96397100  0.98341200  1
  C  C90  1  0.03590900  0.72040500  0.98386600  1
  C  C91  1  0.27977500  0.03764700  0.98468600  1
  C  C92  1  0.96248000  0.27982500  0.98420500  1
  C  C93  1  0.22019300  0.46260900  0.48368200  1
  C  C94  1  0.53749600  0.22039200  0.48466300  1
  C  C95  1  0.77961100  0.53638300  0.48445900  1
  C  C96  1  0.46393200  0.77980400  0.48346800  1
  C  C97  1  0.78320800  0.96406500  0.98434900  1
  C  C98  1  0.03603500  0.78326400  0.98503300  1
  C  C99  1  0.21691600  0.03752400  0.98591300  1
  C  C100  1  0.96284900  0.21696200  0.98518900  1
  C  C101  1  0.28307400  0.46272600  0.48465400  1
  C  C102  1  0.53734800  0.28324600  0.48584900  1
  C  C103  1  0.71676600  0.53628300  0.48565400  1
  C  C104  1  0.46402700  0.71693500  0.48444700  1
  C  C105  1  0.81389200  0.00137600  0.00309600  1
  C  C106  1  0.99849900  0.81377400  0.00374300  1
  C  C107  1  0.18652700  0.99866000  0.00408200  1
  C  C108  1  0.00142800  0.18641100  0.00343100  1
  C  C109  1  0.31373200  0.50125800  0.50286500  1
  C  C110  1  0.49863900  0.31361300  0.50408000  1
  C  C111  1  0.68636100  0.49857100  0.50433700  1
  C  C112  1  0.50155500  0.68624400  0.50311300  1
  C  C113  1  0.78139800  0.03951700  0.02107600  1
  C  C114  1  0.95977500  0.78114800  0.02138600  1
  C  C115  1  0.21935500  0.95891000  0.02116900  1
  C  C116  1  0.04050900  0.21912000  0.02091100  1
  C  C117  1  0.28124800  0.54067900  0.52023000  1
  C  C118  1  0.45910200  0.28086400  0.52127300  1
  C  C119  1  0.71921500  0.46003700  0.52201800  1
  C  C120  1  0.53994700  0.71883400  0.52097100  1
  C  C121  1  0.69254100  0.86497500  0.96231300  1
  C  C122  1  0.13514900  0.69349700  0.96273700  1
  C  C123  1  0.30500400  0.13877100  0.96511600  1
  C  C124  1  0.86157400  0.30583700  0.96465700  1
  C  C125  1  0.19424700  0.36178100  0.46400200  1
  C  C126  1  0.63858700  0.19484200  0.46517900  1
  C  C127  1  0.80656500  0.63581400  0.46355900  1
  C  C128  1  0.36474700  0.80709500  0.46239600  1
  C  C129  1  0.66816600  0.83093200  0.94033800  1
  C  C130  1  0.16938700  0.66935800  0.94077100  1
  C  C131  1  0.32908900  0.17499600  0.94384600  1
  C  C132  1  0.82552300  0.33012300  0.94337100  1
  C  C133  1  0.16976200  0.32585200  0.44272100  1
  C  C134  1  0.67482000  0.17073900  0.44391600  1
  C  C135  1  0.83051100  0.67028500  0.44162700  1
  C  C136  1  0.33055200  0.83141400  0.44046000  1
  C  C137  1  0.64378400  0.85985200  0.91681700  1
  C  C138  1  0.14066500  0.64455200  0.91729500  1
  C  C139  1  0.35545600  0.14842900  0.92019300  1
  C  C140  1  0.85228300  0.35610800  0.91967300  1
  C  C141  1  0.14330400  0.35274800  0.41917100  1
  C  C142  1  0.64826000  0.14465100  0.42019300  1
  C  C143  1  0.85486900  0.64181700  0.41798300  1
  C  C144  1  0.35931700  0.85619000  0.41698800  1
  C  C145  1  0.64362000  0.92278700  0.91533500  1
  C  C146  1  0.07773400  0.64373100  0.91584800  1
  C  C147  1  0.35788100  0.08566300  0.91787600  1
  C  C148  1  0.91506700  0.35795800  0.91732600  1
  C  C149  1  0.14118100  0.41554500  0.41696800  1
  C  C150  1  0.58549500  0.14251500  0.41780000  1
  C  C151  1  0.85543300  0.57890600  0.41633100  1
  C  C152  1  0.42224900  0.85679800  0.41551500  1
  C  C153  1  0.66636300  0.95684800  0.93764000  1
  C  C154  1  0.04349100  0.66623900  0.93814600  1
  C  C155  1  0.33535200  0.04943100  0.93947900  1
  C  C156  1  0.95113400  0.33524200  0.93894500  1
  C  C157  1  0.16409500  0.45148200  0.43858900  1
  C  C158  1  0.54924800  0.16505100  0.43939600  1
  C  C159  1  0.83311300  0.54441900  0.43858800  1
  C  C160  1  0.45645300  0.83410500  0.43778400  1
  C  C161  1  0.69082100  0.92795600  0.96116100  1
  C  C162  1  0.07218000  0.69111700  0.96162900  1
  C  C163  1  0.30892800  0.07596700  0.96315200  1
  C  C164  1  0.92440000  0.30918900  0.96265400  1
  C  C165  1  0.19062300  0.42461500  0.46215300  1
  C  C166  1  0.57578000  0.19120400  0.46313300  1
  C  C167  1  0.80868900  0.57285700  0.46223800  1
  C  C168  1  0.42772000  0.80925800  0.46126100  1
  C  C169  1  0.54585200  0.02765900  0.80984900  1
  C  C170  1  0.97340700  0.54492400  0.80969300  1
  C  C171  1  0.45603100  0.96912800  0.80966100  1
  C  C172  1  0.03196100  0.45511800  0.80982900  1
  C  C173  1  0.04236100  0.53084100  0.30966700  1
  C  C174  1  0.46906200  0.04539300  0.30976300  1
  C  C175  1  0.95256900  0.47226600  0.30985300  1
  C  C176  1  0.52762400  0.95559100  0.30974700  1
  C  C177  1  0.49744400  0.94386500  0.86948000  1
  C  C178  1  0.05678900  0.49722600  0.86958700  1
  C  C179  1  0.50348100  0.05272200  0.86949900  1
  C  C180  1  0.94793100  0.50324000  0.86940800  1
  C  C181  1  0.99499600  0.44725000  0.36951100  1
  C  C182  1  0.55263500  0.99732700  0.36949400  1
  C  C183  1  0.00102200  0.55610700  0.36948200  1
  C  C184  1  0.44377600  0.00333700  0.36948900  1
  C  C185  1  0.49624800  0.94387500  0.89885900  1
  C  C186  1  0.05654500  0.49624700  0.89896700  1
  C  C187  1  0.50426400  0.05269700  0.89887700  1
  C  C188  1  0.94772200  0.50423800  0.89878500  1
  C  C189  1  0.99442400  0.44727800  0.39889100  1
  C  C190  1  0.55261500  0.99630000  0.39886900  1
  C  C191  1  0.00243300  0.55610000  0.39885800  1
  C  C192  1  0.44379000  0.00428900  0.39887100  1
  C  C193  1  0.50058400  0.99830000  0.85459300  1
  C  C194  1  0.00246900  0.50020900  0.85460000  1
  C  C195  1  0.99782600  0.50166800  0.35459900  1
  C  C196  1  0.49821300  0.00035400  0.35459400  1
  C  C197  1  0.04934400  0.48464700  0.13212800  1
  C  C198  1  0.51509400  0.05383300  0.13213000  1
  C  C199  1  0.94467600  0.51520400  0.13202600  1
  C  C200  1  0.48447100  0.94918400  0.13202000  1
  C  C201  1  0.55404300  0.98442700  0.63208100  1
  C  C202  1  0.01747800  0.55087900  0.63198100  1
  C  C203  1  0.44940300  0.01508600  0.63207000  1
  C  C204  1  0.98684000  0.44623500  0.63217400  1
  C  C205  1  0.04976200  0.48560900  0.10275200  1
  C  C206  1  0.51415900  0.05425100  0.10274900  1
  C  C207  1  0.94444100  0.51394300  0.10264800  1
  C  C208  1  0.48575500  0.94894900  0.10264600  1
  C  C209  1  0.55442800  0.98568900  0.60270400  1
  C  C210  1  0.01606300  0.55104700  0.60260900  1
  C  C211  1  0.44913500  0.01412900  0.60269200  1
  C  C212  1  0.98764200  0.44575000  0.60279200  1
  C  C213  1  0.99716900  0.49977900  0.08785600  1
  C  C214  1  0.50005800  0.00163900  0.08785400  1
  C  C215  1  0.50179400  0.99992000  0.58785500  1
  C  C216  1  0.00162700  0.49833900  0.58785700  1
  C  C217  1  0.95437400  0.46808500  0.19192000  1
  C  C218  1  0.53187600  0.95861800  0.19182900  1
  C  C219  1  0.03962300  0.53309400  0.19173600  1
  C  C220  1  0.46689500  0.04388900  0.19182000  1
  C  C221  1  0.45888000  0.96676500  0.69172800  1
  C  C222  1  0.03489800  0.45639200  0.69188600  1
  C  C223  1  0.54417200  0.03171800  0.69192000  1
  C  C224  1  0.96992900  0.54167100  0.69177000  1
  C  C225  1  0.99698600  0.50006600  0.14698200  1
  C  C226  1  0.49970100  0.00145700  0.14697900  1
  C  C227  1  0.50168000  0.99963700  0.64698000  1
  C  C228  1  0.00225600  0.49865900  0.64698200  1
  C  C229  1  0.04098500  0.53279100  0.22121200  1
  C  C230  1  0.46721500  0.04497600  0.22130100  1
  C  C231  1  0.95316900  0.46896500  0.22139800  1
  C  C232  1  0.53101700  0.95714200  0.22130200  1
  C  C233  1  0.54533000  0.03088500  0.72139800  1
  C  C234  1  0.97062300  0.54322200  0.72124400  1
  C  C235  1  0.45747400  0.96711300  0.72120500  1
  C  C236  1  0.03441300  0.45538000  0.72136800  1
  C  C237  1  0.99712600  0.50101000  0.23608600  1
  C  C238  1  0.49897600  0.00095800  0.23608200  1
  C  C239  1  0.50133500  0.99888300  0.73608200  1
  C  C240  1  0.00256700  0.49943500  0.73608700  1
  C  C241  1  0.50021500  0.00169500  0.05663100  1
  C  C242  1  0.99738100  0.49989700  0.05663300  1
  C  C243  1  0.00106300  0.49828400  0.55663400  1
  C  C244  1  0.50178900  0.99990200  0.55663200  1
  C  C245  1  0.08570600  0.56440000  0.23592000  1
  C  C246  1  0.43561200  0.08955500  0.23610600  1
  C  C247  1  0.90854200  0.43763100  0.23629600  1
  C  C248  1  0.56233700  0.91235700  0.23610200  1
  C  C249  1  0.58995700  0.06221200  0.73629800  1
  C  C250  1  0.93921400  0.58804000  0.73598000  1
  C  C251  1  0.41271800  0.93554700  0.73591000  1
  C  C252  1  0.06591700  0.41082900  0.73623700  1
  C  C253  1  0.50014400  0.99829000  0.91373400  1
  C  C254  1  0.00200900  0.50020400  0.91374300  1
  C  C255  1  0.99868700  0.50168600  0.41374100  1
  C  C256  1  0.49821100  0.00030500  0.41373700  1
  C  C257  1  0.59061000  0.06086900  0.76566800  1
  C  C258  1  0.94041600  0.58908800  0.76534900  1
  C  C259  1  0.41178000  0.93645800  0.76528200  1
  C  C260  1  0.06486700  0.41028700  0.76561200  1
  C  C261  1  0.08662000  0.56351200  0.26529200  1
  C  C262  1  0.43646800  0.09015300  0.26548200  1
  C  C263  1  0.90785900  0.43900200  0.26566700  1
  C  C264  1  0.56093900  0.91136400  0.26546900  1
  C  C265  1  0.54590300  0.02923500  0.78037300  1
  C  C266  1  0.97199000  0.54458700  0.78021600  1
  C  C267  1  0.45632800  0.96789600  0.78018200  1
  C  C268  1  0.03335000  0.45502700  0.78035000  1
  C  C269  1  0.04207700  0.53206000  0.28018800  1
  C  C270  1  0.46788800  0.04544000  0.28028300  1
  C  C271  1  0.95253600  0.47067300  0.28037600  1
  C  C272  1  0.52925700  0.95588600  0.28027300  1
  C  C273  1  0.67377800  0.04180800  0.06290900  1
  C  C274  1  0.67248200  0.08309400  0.08881200  1
  C  C275  1  0.95609900  0.67315400  0.06292200  1
  C  C276  1  0.91410100  0.67167000  0.08857300  1
  C  C277  1  0.32774000  0.95255000  0.06240400  1
  C  C278  1  0.32944700  0.90886000  0.08742900  1
  C  C279  1  0.04529300  0.32715900  0.06245900  1
  C  C280  1  0.08816400  0.32864500  0.08779300  1
  C  C281  1  0.17374700  0.54632800  0.56192100  1
  C  C282  1  0.17272900  0.58955500  0.58712800  1
  C  C283  1  0.45309800  0.17252800  0.56254000  1
  C  C284  1  0.40970600  0.17103500  0.58767900  1
  C  C285  1  0.82770500  0.45690600  0.56340200  1
  C  C286  1  0.82964600  0.41507900  0.58910700  1
  C  C287  1  0.54266800  0.82649500  0.56276900  1
  C  C288  1  0.58430400  0.82793000  0.58854900  1
  N  N1  1  0.50084300  0.99833300  0.82409100  1
  N  N2  1  0.00266400  0.50010800  0.82409700  1
  N  N3  1  0.99755300  0.50162800  0.32409600  1
  N  N4  1  0.49825600  0.00042300  0.32409200  1
  N  N5  1  0.99698000  0.50042900  0.17748800  1
  N  N6  1  0.49950900  0.00134100  0.17748500  1
  N  N7  1  0.50157900  0.99936800  0.67748500  1
  N  N8  1  0.00236700  0.49890600  0.67748800  1
  O  O1  1  0.00072900  0.90861500  0.02865500  1
  O  O2  1  0.09138600  0.99772500  0.02883800  1
  O  O3  1  0.00231500  0.09072800  0.02776400  1
  O  O4  1  0.90928200  0.99928400  0.02757800  1
  O  O5  1  0.50035800  0.40861000  0.52887400  1
  O  O6  1  0.59102100  0.49772900  0.52897100  1
  O  O7  1  0.50193800  0.59071100  0.52757300  1
  O  O8  1  0.40892600  0.49925900  0.52747500  1
  O  O9  1  0.99901300  0.90934000  0.97944600  1
  O  O10  1  0.09112900  0.00176000  0.97967300  1
  O  O11  1  0.99869700  0.09153100  0.97860000  1
  O  O12  1  0.90894700  0.00141700  0.97838000  1
  O  O13  1  0.49901100  0.40898000  0.47966000  1
  O  O14  1  0.59109400  0.50140500  0.47980300  1
  O  O15  1  0.49869500  0.59116100  0.47840800  1
  O  O16  1  0.40892100  0.50104100  0.47826900  1
  O  O17  1  0.59157900  0.05443400  0.00148300  1
  O  O18  1  0.94506300  0.59144800  0.00145400  1
  O  O19  1  0.40880200  0.94558700  0.00041900  1
  O  O20  1  0.05402400  0.40873100  0.00046300  1
  O  O21  1  0.09147400  0.55438300  0.50008500  1
  O  O22  1  0.44555800  0.09138100  0.50048100  1
  O  O23  1  0.90871900  0.44554700  0.50182900  1
  O  O24  1  0.55450100  0.90865100  0.50142600  1
  O  O25  1  0.59116900  0.94904100  0.00014200  1
  O  O26  1  0.05046300  0.59109600  0.00032700  1
  O  O27  1  0.40920200  0.05101500  0.00142300  1
  O  O28  1  0.94858200  0.40907600  0.00125100  1
  O  O29  1  0.09108800  0.44895000  0.50105900  1
  O  O30  1  0.55099100  0.09102200  0.50144100  1
  O  O31  1  0.90910800  0.55093400  0.50052000  1
  O  O32  1  0.44910900  0.90901500  0.50013300  1
  O  O33  1  0.91378100  0.43362200  0.17761400  1
  O  O34  1  0.56632100  0.91814500  0.17743900  1
  O  O35  1  0.08013400  0.56729300  0.17724100  1
  O  O36  1  0.43270900  0.08454600  0.17740900  1
  O  O37  1  0.41836600  0.93258000  0.67722900  1
  O  O38  1  0.06914200  0.41568300  0.67753800  1
  O  O39  1  0.58481000  0.06613600  0.67761800  1
  O  O40  1  0.93555500  0.58210200  0.67731800  1
  O  O41  1  0.59169200  0.05428500  0.82434700  1
  O  O42  1  0.94668300  0.59094000  0.82402900  1
  O  O43  1  0.41002000  0.94233800  0.82397400  1
  O  O44  1  0.05867700  0.40929600  0.82430200  1
  O  O45  1  0.08836600  0.55764300  0.32397900  1
  O  O46  1  0.44223400  0.09123000  0.32418100  1
  O  O47  1  0.90674400  0.44561200  0.32434900  1
  O  O48  1  0.55424200  0.90959500  0.32414000  1
  O  O49  1  0.50184900  0.05099900  0.95832100  1
  O  O50  1  0.94891200  0.50187800  0.95822900  1
  O  O51  1  0.49836200  0.94559800  0.95830300  1
  O  O52  1  0.05431600  0.49844200  0.95841400  1
  O  O53  1  0.00116000  0.55436300  0.45831000  1
  O  O54  1  0.44556600  0.00189800  0.45832500  1
  O  O55  1  0.99767600  0.44896000  0.45832700  1
  O  O56  1  0.55097000  0.99846000  0.45830500  1
  O  O57  1  0.50169100  0.05442700  0.04331600  1
  O  O58  1  0.94476600  0.50140100  0.04321700  1
  O  O59  1  0.49884300  0.94895300  0.04329500  1
  O  O60  1  0.05024300  0.49860800  0.04339900  1
  O  O61  1  0.00220200  0.55103300  0.54330000  1
  O  O62  1  0.44902200  0.00126800  0.54331700  1
  O  O63  1  0.99935200  0.44555700  0.54331800  1
  O  O64  1  0.55449900  0.99846300  0.54329800  1
  O  O65  1  0.68645000  0.07672100  0.03862000  1
  O  O66  1  0.92186900  0.68608900  0.03845200  1
  O  O67  1  0.31461500  0.91995800  0.03747400  1
  O  O68  1  0.07869500  0.31429400  0.03773400  1
  O  O69  1  0.18629000  0.57936200  0.53705300  1
  O  O70  1  0.42024300  0.18563400  0.53768300  1
  O  O71  1  0.81447700  0.42249400  0.53902100  1
  O  O72  1  0.57727600  0.81382900  0.53838400  1
