# generated using pymatgen
data_CuH7C14NO7
_symmetry_space_group_name_H-M   'P 1'
_cell_length_a   10.54320000
_cell_length_b   34.99640000
_cell_length_c   10.00000000
_cell_angle_alpha   90.00000000
_cell_angle_beta   90.00000000
_cell_angle_gamma   90.09330000
_symmetry_Int_Tables_number   1
_chemical_formula_structural   CuH7C14NO7
_chemical_formula_sum   'Cu4 H28 C56 N4 O28'
_cell_volume   3689.73555283
_cell_formula_units_Z   4
loop_
 _symmetry_equiv_pos_site_id
 _symmetry_equiv_pos_as_xyz
  1  'x, y, z'
loop_
 _atom_site_type_symbol
 _atom_site_label
 _atom_site_symmetry_multiplicity
 _atom_site_fract_x
 _atom_site_fract_y
 _atom_site_fract_z
 _atom_site_occupancy
  Cu  Cu1  1  0.50000000  0.50000000  0.62726000  1
  Cu  Cu2  1  0.50001000  0.50000000  0.37274000  1
  Cu  Cu3  1  0.50050000  0.00000000  0.28188000  1
  Cu  Cu4  1  0.49986000  0.00001000  0.53639000  1
  H  H1  1  0.50005000  0.88015000  0.62461000  1
  H  H2  1  0.50004000  0.81085000  0.62594000  1
  H  H3  1  0.50059000  0.81023000  0.19334000  1
  H  H4  1  0.49991000  0.68976000  0.71585000  1
  H  H5  1  0.50046000  0.68916000  0.28324000  1
  H  H6  1  0.50045000  0.61986000  0.28456000  1
  H  H7  1  0.50045000  0.74990000  0.30204000  1
  H  H8  1  0.50006000  0.75010000  0.60716000  1
  H  H9  1  0.49967000  0.11986000  0.62458000  1
  H  H10  1  0.49966000  0.18916000  0.62591000  1
  H  H11  1  0.50037000  0.18977000  0.19331000  1
  H  H12  1  0.49950000  0.31024000  0.71584000  1
  H  H13  1  0.50021000  0.31085000  0.28322000  1
  H  H14  1  0.50020000  0.38015000  0.28455000  1
  H  H15  1  0.50019000  0.25010000  0.30202000  1
  H  H16  1  0.49969000  0.24990000  0.60714000  1
  H  H17  1  0.21577000  0.54832000  0.33146000  1
  H  H18  1  0.78486000  0.54836000  0.33148000  1
  H  H19  1  0.89582000  0.45907000  0.64276000  1
  H  H20  1  0.10367000  0.45904000  0.64275000  1
  H  H21  1  0.21550000  0.95238000  0.57971000  1
  H  H22  1  0.78459000  0.95192000  0.57847000  1
  H  H23  1  0.89636000  0.04131000  0.26748000  1
  H  H24  1  0.10421000  0.04154000  0.26807000  1
  H  H25  1  0.24446000  0.59554000  0.16679000  1
  H  H26  1  0.75678000  0.59559000  0.16681000  1
  H  H27  1  0.24376000  0.90518000  0.74448000  1
  H  H28  1  0.75608000  0.90467000  0.74308000  1
  C  C1  1  0.73788000  0.50003000  0.50001000  1
  C  C2  1  0.26213000  0.49997000  0.49999000  1
  C  C3  1  0.49984000  0.42834000  0.49999000  1
  C  C4  1  0.50017000  0.57167000  0.50000000  1
  C  C5  1  0.73806000  0.00020000  0.40980000  1
  C  C6  1  0.26230000  0.99980000  0.40848000  1
  C  C7  1  0.50003000  0.07167000  0.40912000  1
  C  C8  1  0.50033000  0.92834000  0.40915000  1
  C  C9  1  0.50033000  0.88566000  0.40916000  1
  C  C10  1  0.50017000  0.86506000  0.53008000  1
  C  C11  1  0.50016000  0.82503000  0.53024000  1
  C  C12  1  0.50032000  0.80443000  0.40893000  1
  C  C13  1  0.50047000  0.82510000  0.28832000  1
  C  C14  1  0.50048000  0.86509000  0.28824000  1
  C  C15  1  0.50032000  0.76182000  0.40144000  1
  C  C16  1  0.50018000  0.73818000  0.50777000  1
  C  C17  1  0.50003000  0.67490000  0.62087000  1
  C  C18  1  0.50019000  0.69557000  0.50026000  1
  C  C19  1  0.50034000  0.67498000  0.37894000  1
  C  C20  1  0.50033000  0.63495000  0.37910000  1
  C  C21  1  0.50018000  0.61434000  0.50001000  1
  C  C22  1  0.50003000  0.63491000  0.62094000  1
  C  C23  1  0.50003000  0.11434000  0.40913000  1
  C  C24  1  0.49982000  0.13495000  0.53004000  1
  C  C25  1  0.49982000  0.17498000  0.53022000  1
  C  C26  1  0.50002000  0.19557000  0.40890000  1
  C  C27  1  0.50022000  0.17491000  0.28829000  1
  C  C28  1  0.50022000  0.13492000  0.28821000  1
  C  C29  1  0.50002000  0.23819000  0.40142000  1
  C  C30  1  0.49985000  0.26182000  0.50774000  1
  C  C31  1  0.49965000  0.32510000  0.62085000  1
  C  C32  1  0.49985000  0.30443000  0.50024000  1
  C  C33  1  0.50005000  0.32503000  0.37892000  1
  C  C34  1  0.50005000  0.36505000  0.37909000  1
  C  C35  1  0.49985000  0.38566000  0.50000000  1
  C  C36  1  0.49965000  0.36509000  0.62092000  1
  C  C37  1  0.12372000  0.49999000  0.49999000  1
  C  C38  1  0.05896000  0.52478000  0.41359000  1
  C  C39  1  0.05864000  0.47521000  0.58640000  1
  C  C40  1  0.12771000  0.54898000  0.32919000  1
  C  C41  1  0.06687000  0.57406000  0.24178000  1
  C  C42  1  0.87629000  0.50001000  0.50000000  1
  C  C43  1  0.94105000  0.47523000  0.58640000  1
  C  C44  1  0.94137000  0.52479000  0.41359000  1
  C  C45  1  0.87293000  0.54900000  0.32920000  1
  C  C46  1  0.93409000  0.57407000  0.24179000  1
  C  C47  1  0.12389000  0.00062000  0.41090000  1
  C  C48  1  0.05890000  0.97577000  0.49713000  1
  C  C49  1  0.05904000  0.02533000  0.32431000  1
  C  C50  1  0.12743000  0.95163000  0.58174000  1
  C  C51  1  0.06637000  0.92650000  0.66898000  1
  C  C52  1  0.87647000  0.00035000  0.41020000  1
  C  C53  1  0.94145000  0.02520000  0.32397000  1
  C  C54  1  0.94132000  0.97564000  0.49679000  1
  C  C55  1  0.87266000  0.95136000  0.58101000  1
  C  C56  1  0.93359000  0.92636000  0.66860000  1
  N  N1  1  0.50065000  0.88612000  0.15619000  1
  N  N2  1  0.49986000  0.61388000  0.75298000  1
  N  N3  1  0.50044000  0.11389000  0.15615000  1
  N  N4  1  0.49943000  0.38612000  0.75297000  1
  O  O1  1  0.66492000  0.49997000  0.61869000  1
  O  O2  1  0.33475000  0.49992000  0.61867000  1
  O  O3  1  0.49964000  0.45021000  0.61868000  1
  O  O4  1  0.50002000  0.54968000  0.61868000  1
  O  O5  1  0.50032000  0.54979000  0.38132000  1
  O  O6  1  0.50003000  0.45033000  0.38132000  1
  O  O7  1  0.33496000  0.49998000  0.38131000  1
  O  O8  1  0.66526000  0.50010000  0.38133000  1
  O  O9  1  0.66539000  0.00019000  0.29091000  1
  O  O10  1  0.33522000  0.99993000  0.29000000  1
  O  O11  1  0.50013000  0.04979000  0.29044000  1
  O  O12  1  0.50048000  0.95032000  0.29047000  1
  O  O13  1  0.50018000  0.95021000  0.52783000  1
  O  O14  1  0.49992000  0.04968000  0.52780000  1
  O  O15  1  0.33483000  0.99987000  0.52735000  1
  O  O16  1  0.66514000  0.00007000  0.52827000  1
  O  O17  1  0.58360000  0.91981000  0.13745000  1
  O  O18  1  0.41786000  0.87296000  0.04600000  1
  O  O19  1  0.58276000  0.58027000  0.77194000  1
  O  O20  1  0.41679000  0.62695000  0.86293000  1
  O  O21  1  0.41755000  0.08020000  0.13715000  1
  O  O22  1  0.58355000  0.12705000  0.04624000  1
  O  O23  1  0.41647000  0.41973000  0.77167000  1
  O  O24  1  0.58218000  0.37305000  0.86319000  1
  O  O25  1  0.14145000  0.60016000  0.15072000  1
  O  O26  1  0.85984000  0.60019000  0.15073000  1
  O  O27  1  0.14071000  0.90047000  0.76025000  1
  O  O28  1  0.85911000  0.90017000  0.75945000  1
