# generated using pymatgen
data_CuH6C16(N5O2)2
_symmetry_space_group_name_H-M   'P 1'
_cell_length_a   20.78140000
_cell_length_b   39.28830000
_cell_length_c   7.05280000
_cell_angle_alpha   89.99890000
_cell_angle_beta   89.99520000
_cell_angle_gamma   58.05900000
_symmetry_Int_Tables_number   1
_chemical_formula_structural   CuH6C16(N5O2)2
_chemical_formula_sum   'Cu4 H24 C64 N40 O16'
_cell_volume   4886.51480113
_cell_formula_units_Z   4
loop_
 _symmetry_equiv_pos_site_id
 _symmetry_equiv_pos_as_xyz
  1  'x, y, z'
loop_
 _atom_site_type_symbol
 _atom_site_label
 _atom_site_symmetry_multiplicity
 _atom_site_fract_x
 _atom_site_fract_y
 _atom_site_fract_z
 _atom_site_occupancy
  Cu  Cu1  1  0.50000000  0.50000000  0.00000000  1
  Cu  Cu2  1  0.50000000  0.50000000  0.50000000  1
  Cu  Cu3  1  0.50009000  0.99998000  0.00012000  1
  Cu  Cu4  1  0.50000000  0.00000000  0.50012000  1
  H  H1  1  0.50016000  0.86484000  0.45047000  1
  H  H2  1  0.50006000  0.80401000  0.45015000  1
  H  H3  1  0.49998000  0.80402000  0.04990000  1
  H  H4  1  0.49985000  0.69602000  0.45012000  1
  H  H5  1  0.49977000  0.63519000  0.04958000  1
  H  H6  1  0.49986000  0.69602000  0.04986000  1
  H  H7  1  0.49985000  0.13516000  0.95055000  1
  H  H8  1  0.49995000  0.19599000  0.95022000  1
  H  H9  1  0.50002000  0.19598000  0.54996000  1
  H  H10  1  0.50015000  0.30398000  0.95016000  1
  H  H11  1  0.50023000  0.36481000  0.54960000  1
  H  H12  1  0.50015000  0.30398000  0.54990000  1
  H  H13  1  0.77013000  0.86489000  0.95065000  1
  H  H14  1  0.89188000  0.80405000  0.95030000  1
  H  H15  1  0.89188000  0.80402000  0.55005000  1
  H  H16  1  0.10804000  0.69602000  0.95021000  1
  H  H17  1  0.22981000  0.63519000  0.54964000  1
  H  H18  1  0.10805000  0.69602000  0.54996000  1
  H  H19  1  0.22996000  0.13516000  0.04935000  1
  H  H20  1  0.10819000  0.19599000  0.04970000  1
  H  H21  1  0.10813000  0.19598000  0.44995000  1
  H  H22  1  0.89197000  0.30398000  0.04979000  1
  H  H23  1  0.77019000  0.36481000  0.45036000  1
  H  H24  1  0.89196000  0.30398000  0.45004000  1
  C  C1  1  0.31460000  0.59283000  0.25003000  1
  C  C2  1  0.50029000  0.40717000  0.25001000  1
  C  C3  1  0.68541000  0.40717000  0.74997000  1
  C  C4  1  0.49972000  0.59283000  0.74999000  1
  C  C5  1  0.68543000  0.90715000  0.25028000  1
  C  C6  1  0.49981000  0.09280000  0.25016000  1
  C  C7  1  0.31457000  0.09285000  0.74997000  1
  C  C8  1  0.50019000  0.90719000  0.75008000  1
  C  C9  1  0.50013000  0.87114000  0.75006000  1
  C  C10  1  0.50012000  0.85241000  0.57801000  1
  C  C11  1  0.50006000  0.81658000  0.57748000  1
  C  C12  1  0.50001000  0.79843000  0.75002000  1
  C  C13  1  0.50002000  0.81658000  0.92259000  1
  C  C14  1  0.50007000  0.85241000  0.92210000  1
  C  C15  1  0.49996000  0.76523000  0.75000000  1
  C  C16  1  0.49991000  0.73480000  0.74998000  1
  C  C17  1  0.49986000  0.70160000  0.74999000  1
  C  C18  1  0.49983000  0.68345000  0.57744000  1
  C  C19  1  0.49978000  0.64762000  0.57794000  1
  C  C20  1  0.49976000  0.62888000  0.74999000  1
  C  C21  1  0.49979000  0.64762000  0.92203000  1
  C  C22  1  0.49984000  0.68345000  0.92254000  1
  C  C23  1  0.49987000  0.12886000  0.25014000  1
  C  C24  1  0.49988000  0.14759000  0.07808000  1
  C  C25  1  0.49994000  0.18342000  0.07755000  1
  C  C26  1  0.49999000  0.20157000  0.25009000  1
  C  C27  1  0.49998000  0.18341000  0.42265000  1
  C  C28  1  0.49993000  0.14759000  0.42217000  1
  C  C29  1  0.50004000  0.23477000  0.25006000  1
  C  C30  1  0.50009000  0.26520000  0.25003000  1
  C  C31  1  0.50014000  0.29840000  0.25003000  1
  C  C32  1  0.50017000  0.31655000  0.07748000  1
  C  C33  1  0.50022000  0.35238000  0.07798000  1
  C  C34  1  0.50024000  0.37112000  0.25001000  1
  C  C35  1  0.50021000  0.35238000  0.42206000  1
  C  C36  1  0.50016000  0.31655000  0.42258000  1
  C  C37  1  0.75750000  0.87118000  0.25024000  1
  C  C38  1  0.79501000  0.85245000  0.07818000  1
  C  C39  1  0.86672000  0.81662000  0.07763000  1
  C  C40  1  0.90306000  0.79845000  0.25017000  1
  C  C41  1  0.86672000  0.81660000  0.42274000  1
  C  C42  1  0.79500000  0.85243000  0.42227000  1
  C  C43  1  0.96951000  0.76524000  0.25013000  1
  C  C44  1  0.03041000  0.73482000  0.25010000  1
  C  C45  1  0.09687000  0.70161000  0.25009000  1
  C  C46  1  0.13320000  0.68345000  0.07753000  1
  C  C47  1  0.20492000  0.64762000  0.07802000  1
  C  C48  1  0.24243000  0.62888000  0.25005000  1
  C  C49  1  0.20492000  0.64762000  0.42210000  1
  C  C50  1  0.13321000  0.68345000  0.42263000  1
  C  C51  1  0.24256000  0.12886000  0.74976000  1
  C  C52  1  0.20506000  0.14760000  0.92182000  1
  C  C53  1  0.13334000  0.18342000  0.92237000  1
  C  C54  1  0.09698000  0.20157000  0.74983000  1
  C  C55  1  0.13331000  0.18341000  0.57726000  1
  C  C56  1  0.20503000  0.14759000  0.57773000  1
  C  C57  1  0.03051000  0.23477000  0.74987000  1
  C  C58  1  0.96961000  0.26519000  0.74990000  1
  C  C59  1  0.90314000  0.29840000  0.74991000  1
  C  C60  1  0.86680000  0.31655000  0.92247000  1
  C  C61  1  0.79508000  0.35238000  0.92198000  1
  C  C62  1  0.75758000  0.37112000  0.74995000  1
  C  C63  1  0.79508000  0.35238000  0.57790000  1
  C  C64  1  0.86680000  0.31655000  0.57737000  1
  N  N1  1  0.41479000  0.54229000  0.15622000  1
  N  N2  1  0.35220000  0.57404000  0.09293000  1
  N  N3  1  0.49939000  0.45771000  0.34380000  1
  N  N4  1  0.50031000  0.42596000  0.40711000  1
  N  N5  1  0.58521000  0.45771000  0.65618000  1
  N  N6  1  0.64780000  0.42596000  0.59287000  1
  N  N7  1  0.50061000  0.54229000  0.84380000  1
  N  N8  1  0.49969000  0.57404000  0.90709000  1
  N  N9  1  0.58521000  0.45771000  0.84378000  1
  N  N10  1  0.64780000  0.42596000  0.90707000  1
  N  N11  1  0.50061000  0.54229000  0.65620000  1
  N  N12  1  0.49969000  0.57404000  0.59289000  1
  N  N13  1  0.41479000  0.54229000  0.34382000  1
  N  N14  1  0.35220000  0.57404000  0.40713000  1
  N  N15  1  0.49939000  0.45771000  0.15621000  1
  N  N16  1  0.50031000  0.42596000  0.09291000  1
  N  N17  1  0.58526000  0.95769000  0.15639000  1
  N  N18  1  0.64786000  0.92593000  0.09315000  1
  N  N19  1  0.50066000  0.04228000  0.34394000  1
  N  N20  1  0.49975000  0.07403000  0.40726000  1
  N  N21  1  0.41477000  0.04230000  0.65625000  1
  N  N22  1  0.35220000  0.07405000  0.59290000  1
  N  N23  1  0.49930000  0.95773000  0.84390000  1
  N  N24  1  0.50020000  0.92598000  0.90719000  1
  N  N25  1  0.41474000  0.04231000  0.84385000  1
  N  N26  1  0.35214000  0.07407000  0.90710000  1
  N  N27  1  0.49934000  0.95772000  0.65630000  1
  N  N28  1  0.50025000  0.92597000  0.59299000  1
  N  N29  1  0.58523000  0.95770000  0.34399000  1
  N  N30  1  0.64781000  0.92594000  0.40735000  1
  N  N31  1  0.50070000  0.04227000  0.15634000  1
  N  N32  1  0.49981000  0.07402000  0.09306000  1
  N  N33  1  0.50008000  0.87077000  0.11045000  1
  N  N34  1  0.49975000  0.62926000  0.38960000  1
  N  N35  1  0.49992000  0.12923000  0.61053000  1
  N  N36  1  0.50025000  0.37074000  0.88962000  1
  N  N37  1  0.75825000  0.87078000  0.61063000  1
  N  N38  1  0.24167000  0.62926000  0.88966000  1
  N  N39  1  0.24177000  0.12923000  0.38937000  1
  N  N40  1  0.75833000  0.37074000  0.11034000  1
  O  O1  1  0.45055000  0.91457000  0.13897000  1
  O  O2  1  0.54962000  0.84491000  0.26582000  1
  O  O3  1  0.45013000  0.61324000  0.36108000  1
  O  O4  1  0.54935000  0.62736000  0.23423000  1
  O  O5  1  0.54945000  0.08543000  0.63903000  1
  O  O6  1  0.45038000  0.15509000  0.76592000  1
  O  O7  1  0.54987000  0.38676000  0.86108000  1
  O  O8  1  0.45066000  0.37264000  0.73429000  1
  O  O9  1  0.67658000  0.88681000  0.63916000  1
  O  O10  1  0.80404000  0.87267000  0.76600000  1
  O  O11  1  0.27973000  0.58546000  0.86113000  1
  O  O12  1  0.23949000  0.65512000  0.73431000  1
  O  O13  1  0.27984000  0.08543000  0.36085000  1
  O  O14  1  0.23956000  0.15509000  0.23399000  1
  O  O15  1  0.67666000  0.38676000  0.13889000  1
  O  O16  1  0.80411000  0.37264000  0.26568000  1
