# generated using pymatgen
data_AlH3C4O7
_symmetry_space_group_name_H-M   'P 1'
_cell_length_a   16.85270000
_cell_length_b   11.74310000
_cell_length_c   6.60720000
_cell_angle_alpha   90.00000000
_cell_angle_beta   97.40580000
_cell_angle_gamma   45.82850000
_symmetry_Int_Tables_number   1
_chemical_formula_structural   AlH3C4O7
_chemical_formula_sum   'Al4 H12 C16 O28'
_cell_volume   922.60601381
_cell_formula_units_Z   4
loop_
 _symmetry_equiv_pos_site_id
 _symmetry_equiv_pos_as_xyz
  1  'x, y, z'
loop_
 _atom_site_type_symbol
 _atom_site_label
 _atom_site_symmetry_multiplicity
 _atom_site_fract_x
 _atom_site_fract_y
 _atom_site_fract_z
 _atom_site_occupancy
  Al  Al1  1  0.50000000  0.50000000  0.00000000  1
  Al  Al2  1  0.50000000  0.50000000  0.50000000  1
  Al  Al3  1  0.00000000  0.50000000  0.00000000  1
  Al  Al4  1  0.00000000  0.50000000  0.50000000  1
  H  H1  1  0.50000000  0.63185000  0.75000000  1
  H  H2  1  0.50000000  0.36815000  0.25000000  1
  H  H3  1  0.00000000  0.36815000  0.75000000  1
  H  H4  1  0.00000000  0.63185000  0.25000000  1
  H  H5  1  0.66423000  0.50135000  0.95541000  1
  H  H6  1  0.83576000  0.49864000  0.54459000  1
  H  H7  1  0.33576000  0.49864000  0.04459000  1
  H  H8  1  0.16423000  0.50135000  0.45541000  1
  H  H9  1  0.66423000  0.17017000  0.45541000  1
  H  H10  1  0.83576000  0.82982000  0.04459000  1
  H  H11  1  0.33576000  0.82982000  0.54459000  1
  H  H12  1  0.16423000  0.17017000  0.95541000  1
  C  C1  1  0.36078000  0.78019000  0.20423000  1
  C  C2  1  0.63922000  0.50175000  0.29577000  1
  C  C3  1  0.63922000  0.21981000  0.79577000  1
  C  C4  1  0.36078000  0.49825000  0.70423000  1
  C  C5  1  0.13922000  0.21981000  0.29577000  1
  C  C6  1  0.86078000  0.49825000  0.20423000  1
  C  C7  1  0.86078000  0.78019000  0.70423000  1
  C  C8  1  0.13922000  0.50175000  0.79577000  1
  C  C9  1  0.77198000  0.49965000  0.17225000  1
  C  C10  1  0.72801000  0.50035000  0.32775000  1
  C  C11  1  0.22802000  0.50035000  0.82775000  1
  C  C12  1  0.27198000  0.49965000  0.67225000  1
  C  C13  1  0.77198000  0.95638000  0.67225000  1
  C  C14  1  0.72801000  0.04362000  0.82775000  1
  C  C15  1  0.22802000  0.04362000  0.32775000  1
  C  C16  1  0.27198000  0.95638000  0.17225000  1
  O  O1  1  0.39757000  0.70719000  0.04262000  1
  O  O2  1  0.60243000  0.50233000  0.45739000  1
  O  O3  1  0.60243000  0.29281000  0.60997000  1
  O  O4  1  0.39757000  0.49766000  0.89004000  1
  O  O5  1  0.60243000  0.29281000  0.95739000  1
  O  O6  1  0.39757000  0.49766000  0.54262000  1
  O  O7  1  0.39757000  0.70719000  0.39004000  1
  O  O8  1  0.60243000  0.50233000  0.10996000  1
  O  O9  1  0.50000000  0.54964000  0.75000000  1
  O  O10  1  0.50000000  0.45035000  0.25000000  1
  O  O11  1  0.10243000  0.29281000  0.10996000  1
  O  O12  1  0.89757000  0.49766000  0.39004000  1
  O  O13  1  0.89757000  0.70719000  0.54262000  1
  O  O14  1  0.10243000  0.50233000  0.95739000  1
  O  O15  1  0.89757000  0.70719000  0.89004000  1
  O  O16  1  0.10243000  0.50233000  0.60997000  1
  O  O17  1  0.10243000  0.29281000  0.45739000  1
  O  O18  1  0.89757000  0.49766000  0.04262000  1
  O  O19  1  0.00000000  0.45035000  0.75000000  1
  O  O20  1  0.00000000  0.54964000  0.25000000  1
  O  O21  1  0.73058000  0.50030000  0.95509000  1
  O  O22  1  0.76941000  0.49969000  0.54492000  1
  O  O23  1  0.26941000  0.49969000  0.04492000  1
  O  O24  1  0.23059000  0.50031000  0.45509000  1
  O  O25  1  0.73058000  0.03852000  0.45509000  1
  O  O26  1  0.76941000  0.96148000  0.04492000  1
  O  O27  1  0.26941000  0.96148000  0.54492000  1
  O  O28  1  0.23059000  0.03852000  0.95509000  1
