# generated using pymatgen
data_Zn2H44C57(NO6)2
_symmetry_space_group_name_H-M   'P 1'
_cell_length_a   32.67020000
_cell_length_b   17.57240000
_cell_length_c   16.73770000
_cell_angle_alpha   90.04070000
_cell_angle_beta   89.86830000
_cell_angle_gamma   89.76970000
_symmetry_Int_Tables_number   1
_chemical_formula_structural   Zn2H44C57(NO6)2
_chemical_formula_sum   'Zn4 H88 C114 N4 O24'
_cell_volume   9608.90467699
_cell_formula_units_Z   2
loop_
 _symmetry_equiv_pos_site_id
 _symmetry_equiv_pos_as_xyz
  1  'x, y, z'
loop_
 _atom_site_type_symbol
 _atom_site_label
 _atom_site_symmetry_multiplicity
 _atom_site_fract_x
 _atom_site_fract_y
 _atom_site_fract_z
 _atom_site_occupancy
  Zn  Zn1  1  0.50000000  0.50001000  0.59904000  1
  Zn  Zn2  1  0.50001000  0.50002000  0.40096000  1
  Zn  Zn3  1  0.96213000  0.49776000  0.40096000  1
  Zn  Zn4  1  0.96212000  0.49800000  0.59904000  1
  H  H1  1  0.54595000  0.41503000  0.26938000  1
  H  H2  1  0.45408000  0.58501000  0.26991000  1
  H  H3  1  0.54592000  0.41498000  0.73008000  1
  H  H4  1  0.45408000  0.58501000  0.73063000  1
  H  H5  1  0.50016000  0.25696000  0.62619000  1
  H  H6  1  0.50004000  0.25674000  0.37371000  1
  H  H7  1  0.49989000  0.74328000  0.62630000  1
  H  H8  1  0.49982000  0.74307000  0.37383000  1
  H  H9  1  0.63000000  0.49952000  0.37964000  1
  H  H10  1  0.62966000  0.49966000  0.62017000  1
  H  H11  1  0.83213000  0.49873000  0.62036000  1
  H  H12  1  0.83248000  0.49859000  0.37983000  1
  H  H13  1  0.09309000  0.49758000  0.37365000  1
  H  H14  1  0.09275000  0.49736000  0.62613000  1
  H  H15  1  0.36939000  0.49972000  0.37387000  1
  H  H16  1  0.36903000  0.49942000  0.62634000  1
  H  H17  1  0.91632000  0.41243000  0.73060000  1
  H  H18  1  0.00791000  0.58156000  0.73011000  1
  H  H19  1  0.91635000  0.41301000  0.26990000  1
  H  H20  1  0.00791000  0.58219000  0.26939000  1
  H  H21  1  0.96072000  0.25469000  0.37398000  1
  H  H22  1  0.96084000  0.25476000  0.62645000  1
  H  H23  1  0.96183000  0.74100000  0.37375000  1
  H  H24  1  0.96191000  0.74109000  0.62623000  1
  H  H25  1  0.45007000  0.65528000  0.12631000  1
  H  H26  1  0.44733000  0.59730000  0.05531000  1
  H  H27  1  0.41626000  0.59223000  0.12661000  1
  H  H28  1  0.54994000  0.34474000  0.12566000  1
  H  H29  1  0.55269000  0.40270000  0.05471000  1
  H  H30  1  0.58376000  0.40778000  0.12573000  1
  H  H31  1  0.41626000  0.59212000  0.87447000  1
  H  H32  1  0.44743000  0.59749000  0.94531000  1
  H  H33  1  0.45001000  0.65528000  0.87418000  1
  H  H34  1  0.58374000  0.40786000  0.87356000  1
  H  H35  1  0.55258000  0.40249000  0.94467000  1
  H  H36  1  0.54999000  0.34470000  0.87348000  1
  H  H37  1  0.52397000  0.11963000  0.31613000  1
  H  H38  1  0.49987000  0.05228000  0.35535000  1
  H  H39  1  0.47598000  0.12024000  0.31633000  1
  H  H40  1  0.47609000  0.12040000  0.68384000  1
  H  H41  1  0.50013000  0.05254000  0.64466000  1
  H  H42  1  0.52408000  0.12013000  0.68364000  1
  H  H43  1  0.47584000  0.88008000  0.31647000  1
  H  H44  1  0.49997000  0.94750000  0.35538000  1
  H  H45  1  0.52383000  0.87947000  0.31610000  1
  H  H46  1  0.52399000  0.87995000  0.68361000  1
  H  H47  1  0.49993000  0.94773000  0.64468000  1
  H  H48  1  0.47601000  0.88020000  0.68398000  1
  H  H49  1  0.16647000  0.45321000  0.68357000  1
  H  H50  1  0.20269000  0.49830000  0.64462000  1
  H  H51  1  0.16598000  0.54242000  0.68382000  1
  H  H52  1  0.16658000  0.54286000  0.31631000  1
  H  H53  1  0.20308000  0.49833000  0.35531000  1
  H  H54  1  0.16687000  0.45365000  0.31606000  1
  H  H55  1  0.29516000  0.54346000  0.68384000  1
  H  H56  1  0.25905000  0.49846000  0.64466000  1
  H  H57  1  0.29564000  0.45425000  0.68375000  1
  H  H58  1  0.29606000  0.45458000  0.31624000  1
  H  H59  1  0.25945000  0.49904000  0.35535000  1
  H  H60  1  0.29577000  0.54379000  0.31633000  1
  H  H61  1  0.01180000  0.65196000  0.87372000  1
  H  H62  1  0.01464000  0.59404000  0.94471000  1
  H  H63  1  0.04572000  0.58860000  0.87341000  1
  H  H64  1  0.91245000  0.34234000  0.87431000  1
  H  H65  1  0.90961000  0.40041000  0.94527000  1
  H  H66  1  0.87853000  0.40569000  0.87425000  1
  H  H67  1  0.04572000  0.58878000  0.12555000  1
  H  H68  1  0.01454000  0.59436000  0.05472000  1
  H  H69  1  0.01186000  0.65226000  0.12585000  1
  H  H70  1  0.87854000  0.40607000  0.12642000  1
  H  H71  1  0.90971000  0.40033000  0.05531000  1
  H  H72  1  0.91240000  0.34260000  0.12648000  1
  H  H73  1  0.93713000  0.11793000  0.68400000  1
  H  H74  1  0.96135000  0.05032000  0.64477000  1
  H  H75  1  0.98512000  0.11811000  0.68380000  1
  H  H76  1  0.98501000  0.11784000  0.31629000  1
  H  H77  1  0.96109000  0.05025000  0.35546000  1
  H  H78  1  0.93703000  0.11802000  0.31649000  1
  H  H79  1  0.98566000  0.87794000  0.68361000  1
  H  H80  1  0.96142000  0.94554000  0.64472000  1
  H  H81  1  0.93768000  0.87778000  0.68398000  1
  H  H82  1  0.93751000  0.87783000  0.31647000  1
  H  H83  1  0.96146000  0.94544000  0.35542000  1
  H  H84  1  0.98549000  0.87764000  0.31611000  1
  H  H85  1  0.82122000  0.45333000  0.33228000  1
  H  H86  1  0.64139000  0.54472000  0.33211000  1
  H  H87  1  0.82067000  0.54409000  0.66790000  1
  H  H88  1  0.64098000  0.45436000  0.66771000  1
  C  C1  1  0.50015000  0.35159000  0.49993000  1
  C  C2  1  0.57984000  0.49982000  0.49986000  1
  C  C3  1  0.49982000  0.64844000  0.50008000  1
  C  C4  1  0.42017000  0.49994000  0.50015000  1
  C  C5  1  0.96223000  0.34946000  0.50004000  1
  C  C6  1  0.88229000  0.49843000  0.50015000  1
  C  C7  1  0.96207000  0.64631000  0.49996000  1
  C  C8  1  0.04197000  0.49708000  0.49985000  1
  C  C9  1  0.52639000  0.45121000  0.24030000  1
  C  C10  1  0.52647000  0.45106000  0.15616000  1
  C  C11  1  0.50001000  0.50000000  0.11369000  1
  C  C12  1  0.47355000  0.54896000  0.15647000  1
  C  C13  1  0.47363000  0.54882000  0.24060000  1
  C  C14  1  0.50001000  0.50000000  0.03572000  1
  C  C15  1  0.50001000  0.49999000  0.96428000  1
  C  C16  1  0.50000000  0.49999000  0.88631000  1
  C  C17  1  0.52645000  0.45103000  0.84352000  1
  C  C18  1  0.52637000  0.45117000  0.75939000  1
  C  C19  1  0.47363000  0.54882000  0.75971000  1
  C  C20  1  0.47355000  0.54896000  0.84384000  1
  C  C21  1  0.50011000  0.27095000  0.49995000  1
  C  C22  1  0.50012000  0.22910000  0.57245000  1
  C  C23  1  0.50008000  0.14897000  0.57269000  1
  C  C24  1  0.50003000  0.10830000  0.49999000  1
  C  C25  1  0.50001000  0.14884000  0.42727000  1
  C  C26  1  0.50005000  0.22897000  0.42746000  1
  C  C27  1  0.49999000  0.03403000  0.50001000  1
  C  C28  1  0.49996000  0.96599000  0.50003000  1
  C  C29  1  0.49992000  0.89173000  0.50004000  1
  C  C30  1  0.49993000  0.85118000  0.57275000  1
  C  C31  1  0.49989000  0.77104000  0.57255000  1
  C  C32  1  0.49985000  0.72908000  0.50006000  1
  C  C33  1  0.49985000  0.77093000  0.42756000  1
  C  C34  1  0.49988000  0.85106000  0.42734000  1
  C  C35  1  0.64330000  0.49949000  0.42874000  1
  C  C36  1  0.68612000  0.49929000  0.43227000  1
  C  C37  1  0.70990000  0.49914000  0.36287000  1
  C  C38  1  0.64309000  0.49957000  0.57109000  1
  C  C39  1  0.68593000  0.49937000  0.56764000  1
  C  C40  1  0.70951000  0.49930000  0.63709000  1
  C  C41  1  0.81884000  0.49876000  0.57126000  1
  C  C42  1  0.77601000  0.49896000  0.56773000  1
  C  C43  1  0.75223000  0.49911000  0.63714000  1
  C  C44  1  0.81904000  0.49868000  0.42891000  1
  C  C45  1  0.77620000  0.49888000  0.43236000  1
  C  C46  1  0.75263000  0.49895000  0.36291000  1
  C  C47  1  0.62078000  0.49963000  0.49989000  1
  C  C48  1  0.71086000  0.49922000  0.49998000  1
  C  C49  1  0.84135000  0.49862000  0.50011000  1
  C  C50  1  0.75127000  0.49903000  0.50002000  1
  C  C51  1  0.08534000  0.49741000  0.49988000  1
  C  C52  1  0.10798000  0.49765000  0.42740000  1
  C  C53  1  0.15108000  0.49798000  0.42722000  1
  C  C54  1  0.17282000  0.49808000  0.49995000  1
  C  C55  1  0.15088000  0.49785000  0.57264000  1
  C  C56  1  0.10778000  0.49752000  0.57239000  1
  C  C57  1  0.21277000  0.49839000  0.49997000  1
  C  C58  1  0.24936000  0.49867000  0.49999000  1
  C  C59  1  0.28931000  0.49897000  0.50003000  1
  C  C60  1  0.31125000  0.49922000  0.42734000  1
  C  C61  1  0.35435000  0.49954000  0.42759000  1
  C  C62  1  0.37679000  0.49962000  0.50011000  1
  C  C63  1  0.35415000  0.49937000  0.57258000  1
  C  C64  1  0.31105000  0.49905000  0.57276000  1
  C  C65  1  0.93582000  0.44847000  0.75969000  1
  C  C66  1  0.93575000  0.44841000  0.84382000  1
  C  C67  1  0.96213000  0.49716000  0.88631000  1
  C  C68  1  0.98850000  0.54582000  0.84354000  1
  C  C69  1  0.98842000  0.54559000  0.75941000  1
  C  C70  1  0.96213000  0.49725000  0.96428000  1
  C  C71  1  0.96213000  0.49732000  0.03572000  1
  C  C72  1  0.96213000  0.49741000  0.11369000  1
  C  C73  1  0.93576000  0.44874000  0.15647000  1
  C  C74  1  0.93584000  0.44899000  0.24060000  1
  C  C75  1  0.98842000  0.54614000  0.24030000  1
  C  C76  1  0.98850000  0.54619000  0.15617000  1
  C  C77  1  0.96075000  0.26883000  0.50022000  1
  C  C78  1  0.96080000  0.22690000  0.42771000  1
  C  C79  1  0.96098000  0.14676000  0.42745000  1
  C  C80  1  0.96110000  0.10617000  0.50014000  1
  C  C81  1  0.96104000  0.14680000  0.57287000  1
  C  C82  1  0.96087000  0.22693000  0.57270000  1
  C  C83  1  0.96126000  0.03191000  0.50011000  1
  C  C84  1  0.96140000  0.96387000  0.50007000  1
  C  C85  1  0.96156000  0.88960000  0.50005000  1
  C  C86  1  0.96162000  0.84897000  0.42732000  1
  C  C87  1  0.96179000  0.76883000  0.42751000  1
  C  C88  1  0.96190000  0.72695000  0.49999000  1
  C  C89  1  0.96183000  0.76888000  0.57250000  1
  C  C90  1  0.96166000  0.84902000  0.57274000  1
  C  C91  1  0.44398000  0.60366000  0.11193000  1
  C  C92  1  0.55604000  0.39635000  0.11128000  1
  C  C93  1  0.44399000  0.60368000  0.88873000  1
  C  C94  1  0.55601000  0.39630000  0.88806000  1
  C  C95  1  0.49995000  0.10618000  0.34602000  1
  C  C96  1  0.50010000  0.10645000  0.65396000  1
  C  C97  1  0.49988000  0.89358000  0.34607000  1
  C  C98  1  0.49997000  0.89384000  0.65401000  1
  C  C99  1  0.17368000  0.49796000  0.65392000  1
  C  C100  1  0.17410000  0.49823000  0.34598000  1
  C  C101  1  0.28803000  0.49878000  0.65400000  1
  C  C102  1  0.28846000  0.49915000  0.34606000  1
  C  C103  1  0.01798000  0.60030000  0.88810000  1
  C  C104  1  0.90627000  0.39402000  0.88870000  1
  C  C105  1  0.01797000  0.60059000  0.11129000  1
  C  C106  1  0.90629000  0.39423000  0.11192000  1
  C  C107  1  0.96117000  0.10423000  0.65411000  1
  C  C108  1  0.96103000  0.10415000  0.34617000  1
  C  C109  1  0.96160000  0.89164000  0.65402000  1
  C  C110  1  0.96151000  0.89153000  0.34608000  1
  C  C111  1  0.77468000  0.49880000  0.28297000  1
  C  C112  1  0.68807000  0.49920000  0.28288000  1
  C  C113  1  0.77406000  0.49905000  0.71712000  1
  C  C114  1  0.68745000  0.49945000  0.71703000  1
  N  N1  1  0.50001000  0.50002000  0.28445000  1
  N  N2  1  0.50000000  0.50000000  0.71555000  1
  N  N3  1  0.96212000  0.49698000  0.71555000  1
  N  N4  1  0.96213000  0.49762000  0.28445000  1
  O  O1  1  0.50030000  0.39025000  0.58112000  1
  O  O2  1  0.50010000  0.39027000  0.41872000  1
  O  O3  1  0.55902000  0.49987000  0.41863000  1
  O  O4  1  0.55904000  0.49996000  0.58103000  1
  O  O5  1  0.49978000  0.60978000  0.41888000  1
  O  O6  1  0.49983000  0.60975000  0.58128000  1
  O  O7  1  0.44098000  0.50000000  0.58137000  1
  O  O8  1  0.44096000  0.50019000  0.41897000  1
  O  O9  1  0.96201000  0.38802000  0.41886000  1
  O  O10  1  0.96222000  0.38824000  0.58125000  1
  O  O11  1  0.90311000  0.49838000  0.58137000  1
  O  O12  1  0.90309000  0.49828000  0.41897000  1
  O  O13  1  0.96217000  0.60774000  0.58114000  1
  O  O14  1  0.96212000  0.60753000  0.41875000  1
  O  O15  1  0.02115000  0.49723000  0.41863000  1
  O  O16  1  0.02117000  0.49761000  0.58103000  1
  O  O17  1  0.81104000  0.46538000  0.27648000  1
  O  O18  1  0.75833000  0.52786000  0.22414000  1
  O  O19  1  0.65173000  0.53260000  0.27633000  1
  O  O20  1  0.70460000  0.47006000  0.22408000  1
  O  O21  1  0.81035000  0.53213000  0.72368000  1
  O  O22  1  0.75758000  0.47014000  0.77591000  1
  O  O23  1  0.65114000  0.46638000  0.72352000  1
  O  O24  1  0.70376000  0.52844000  0.77586000  1
