# generated using pymatgen
data_Zn4H31C80S2N5(Cl5O9)2
_symmetry_space_group_name_H-M   'P 1'
_cell_length_a   30.27430000
_cell_length_b   17.57240000
_cell_length_c   16.73770000
_cell_angle_alpha   90.04070000
_cell_angle_beta   89.87050000
_cell_angle_gamma   89.75850000
_symmetry_Int_Tables_number   1
_chemical_formula_structural   Zn4H31C80S2N5(Cl5O9)2
_chemical_formula_sum   'Zn4 H31 C80 S2 N5 Cl10 O18'
_cell_volume   8904.22018035
_cell_formula_units_Z   1
loop_
 _symmetry_equiv_pos_site_id
 _symmetry_equiv_pos_as_xyz
  1  'x, y, z'
loop_
 _atom_site_type_symbol
 _atom_site_label
 _atom_site_symmetry_multiplicity
 _atom_site_fract_x
 _atom_site_fract_y
 _atom_site_fract_z
 _atom_site_occupancy
  Zn  Zn1  1  0.50000000  0.50001000  0.59904000  1
  Zn  Zn2  1  0.50000000  0.50002000  0.40096000  1
  Zn  Zn3  1  0.91956000  0.49796000  0.40092000  1
  Zn  Zn4  1  0.91955000  0.49820000  0.59900000  1
  H  H1  1  0.54958000  0.41502000  0.26938000  1
  H  H2  1  0.54963000  0.41492000  0.12654000  1
  H  H3  1  0.45039000  0.58509000  0.12706000  1
  H  H4  1  0.54960000  0.41488000  0.87293000  1
  H  H5  1  0.45044000  0.58503000  0.73063000  1
  H  H6  1  0.45040000  0.58510000  0.87347000  1
  H  H7  1  0.50017000  0.25696000  0.62619000  1
  H  H8  1  0.50010000  0.12090000  0.62634000  1
  H  H9  1  0.49997000  0.12067000  0.37363000  1
  H  H10  1  0.49995000  0.87934000  0.62640000  1
  H  H11  1  0.49981000  0.74307000  0.37383000  1
  H  H12  1  0.49987000  0.87913000  0.37368000  1
  H  H13  1  0.76455000  0.49904000  0.61642000  1
  H  H14  1  0.06089000  0.49773000  0.37362000  1
  H  H15  1  0.13986000  0.49827000  0.37356000  1
  H  H16  1  0.13949000  0.49804000  0.62627000  1
  H  H17  1  0.28007000  0.49925000  0.37367000  1
  H  H18  1  0.35866000  0.49946000  0.62633000  1
  H  H19  1  0.27969000  0.49894000  0.62638000  1
  H  H20  1  0.87013000  0.41265000  0.73056000  1
  H  H21  1  0.87009000  0.41272000  0.87340000  1
  H  H22  1  0.96902000  0.58197000  0.87292000  1
  H  H23  1  0.87011000  0.41297000  0.12701000  1
  H  H24  1  0.96897000  0.58237000  0.26935000  1
  H  H25  1  0.96901000  0.58228000  0.12650000  1
  H  H26  1  0.91804000  0.25489000  0.37394000  1
  H  H27  1  0.91835000  0.11883000  0.37375000  1
  H  H28  1  0.91848000  0.11889000  0.62647000  1
  H  H29  1  0.91893000  0.87726000  0.37364000  1
  H  H30  1  0.91932000  0.74129000  0.62619000  1
  H  H31  1  0.91901000  0.87735000  0.62636000  1
  C  C1  1  0.50016000  0.35159000  0.49993000  1
  C  C2  1  0.58616000  0.49979000  0.49986000  1
  C  C3  1  0.49981000  0.64844000  0.50008000  1
  C  C4  1  0.41385000  0.49997000  0.50014000  1
  C  C5  1  0.91966000  0.34966000  0.50000000  1
  C  C6  1  0.83340000  0.49865000  0.50010000  1
  C  C7  1  0.91949000  0.64650000  0.49992000  1
  C  C8  1  0.00572000  0.49724000  0.49982000  1
  C  C9  1  0.52848000  0.45120000  0.24030000  1
  C  C10  1  0.52856000  0.45105000  0.15617000  1
  C  C11  1  0.50001000  0.50000000  0.11369000  1
  C  C12  1  0.47146000  0.54897000  0.15647000  1
  C  C13  1  0.47154000  0.54883000  0.24060000  1
  C  C14  1  0.50001000  0.50000000  0.03572000  1
  C  C15  1  0.50001000  0.49999000  0.96428000  1
  C  C16  1  0.50000000  0.49999000  0.88631000  1
  C  C17  1  0.52854000  0.45102000  0.84353000  1
  C  C18  1  0.52846000  0.45116000  0.75939000  1
  C  C19  1  0.47154000  0.54883000  0.75971000  1
  C  C20  1  0.47146000  0.54897000  0.84384000  1
  C  C21  1  0.50011000  0.27095000  0.49995000  1
  C  C22  1  0.50013000  0.22910000  0.57245000  1
  C  C23  1  0.50009000  0.14897000  0.57269000  1
  C  C24  1  0.50003000  0.10830000  0.49999000  1
  C  C25  1  0.50001000  0.14884000  0.42727000  1
  C  C26  1  0.50006000  0.22897000  0.42746000  1
  C  C27  1  0.49999000  0.03403000  0.50001000  1
  C  C28  1  0.49996000  0.96599000  0.50003000  1
  C  C29  1  0.49992000  0.89173000  0.50004000  1
  C  C30  1  0.49992000  0.85118000  0.57275000  1
  C  C31  1  0.49988000  0.77104000  0.57255000  1
  C  C32  1  0.49984000  0.72908000  0.50006000  1
  C  C33  1  0.49984000  0.77093000  0.42756000  1
  C  C34  1  0.49988000  0.85106000  0.42734000  1
  C  C35  1  0.66418000  0.49940000  0.43656000  1
  C  C36  1  0.75538000  0.49905000  0.56340000  1
  C  C37  1  0.63545000  0.49956000  0.49991000  1
  C  C38  1  0.78411000  0.49888000  0.50005000  1
  C  C39  1  0.70972000  0.49925000  0.54081000  1
  C  C40  1  0.70984000  0.49920000  0.45915000  1
  C  C41  1  0.05252000  0.49756000  0.49985000  1
  C  C42  1  0.07695000  0.49779000  0.42737000  1
  C  C43  1  0.12347000  0.49811000  0.42719000  1
  C  C44  1  0.14693000  0.49820000  0.49992000  1
  C  C45  1  0.12325000  0.49798000  0.57261000  1
  C  C46  1  0.07674000  0.49767000  0.57236000  1
  C  C47  1  0.19003000  0.49849000  0.49995000  1
  C  C48  1  0.22953000  0.49876000  0.49998000  1
  C  C49  1  0.27263000  0.49905000  0.50002000  1
  C  C50  1  0.29631000  0.49929000  0.42733000  1
  C  C51  1  0.34282000  0.49960000  0.42758000  1
  C  C52  1  0.36704000  0.49967000  0.50010000  1
  C  C53  1  0.34261000  0.49942000  0.57257000  1
  C  C54  1  0.29609000  0.49911000  0.57275000  1
  C  C55  1  0.89117000  0.44867000  0.75965000  1
  C  C56  1  0.89109000  0.44862000  0.84378000  1
  C  C57  1  0.91955000  0.49736000  0.88627000  1
  C  C58  1  0.94802000  0.54601000  0.84350000  1
  C  C59  1  0.94793000  0.54578000  0.75937000  1
  C  C60  1  0.91955000  0.49744000  0.96424000  1
  C  C61  1  0.91955000  0.49752000  0.03568000  1
  C  C62  1  0.91956000  0.49761000  0.11365000  1
  C  C63  1  0.89111000  0.44895000  0.15642000  1
  C  C64  1  0.89119000  0.44919000  0.24056000  1
  C  C65  1  0.94793000  0.54633000  0.24026000  1
  C  C66  1  0.94801000  0.54637000  0.15613000  1
  C  C67  1  0.91806000  0.26902000  0.50018000  1
  C  C68  1  0.91813000  0.22709000  0.42767000  1
  C  C69  1  0.91831000  0.14696000  0.42741000  1
  C  C70  1  0.91844000  0.10637000  0.50010000  1
  C  C71  1  0.91839000  0.14699000  0.57283000  1
  C  C72  1  0.91820000  0.22713000  0.57265000  1
  C  C73  1  0.91861000  0.03210000  0.50007000  1
  C  C74  1  0.91877000  0.96406000  0.50003000  1
  C  C75  1  0.91894000  0.88980000  0.50001000  1
  C  C76  1  0.91901000  0.84916000  0.42728000  1
  C  C77  1  0.91919000  0.76903000  0.42747000  1
  C  C78  1  0.91931000  0.72714000  0.49995000  1
  C  C79  1  0.91924000  0.76908000  0.57246000  1
  C  C80  1  0.91906000  0.84921000  0.57270000  1
  S  S1  1  0.66190000  0.49950000  0.59139000  1
  S  S2  1  0.75766000  0.49895000  0.40857000  1
  N  N1  1  0.50001000  0.50002000  0.28445000  1
  N  N2  1  0.50000000  0.50000000  0.71555000  1
  N  N3  1  0.91955000  0.49718000  0.71551000  1
  N  N4  1  0.91956000  0.49781000  0.28441000  1
  N  N5  1  0.64928000  0.49941000  0.35042000  1
  Cl  Cl1  1  0.43526000  0.61105000  0.29099000  1
  Cl  Cl2  1  0.56473000  0.38893000  0.70900000  1
  Cl  Cl3  1  0.50003000  0.27670000  0.33506000  1
  Cl  Cl4  1  0.49989000  0.72331000  0.66496000  1
  Cl  Cl5  1  0.04885000  0.49740000  0.66474000  1
  Cl  Cl6  1  0.37072000  0.49989000  0.33521000  1
  Cl  Cl7  1  0.98410000  0.60760000  0.70900000  1
  Cl  Cl8  1  0.85503000  0.38735000  0.29094000  1
  Cl  Cl9  1  0.91813000  0.27497000  0.66507000  1
  Cl  Cl10  1  0.91927000  0.72118000  0.33505000  1
  O  O1  1  0.50032000  0.39025000  0.58112000  1
  O  O2  1  0.50010000  0.39027000  0.41872000  1
  O  O3  1  0.56369000  0.49985000  0.41864000  1
  O  O4  1  0.56372000  0.49994000  0.58104000  1
  O  O5  1  0.49976000  0.60978000  0.41888000  1
  O  O6  1  0.49981000  0.60975000  0.58128000  1
  O  O7  1  0.43631000  0.50002000  0.58136000  1
  O  O8  1  0.43629000  0.50021000  0.41896000  1
  O  O9  1  0.91943000  0.38822000  0.41882000  1
  O  O10  1  0.91965000  0.38843000  0.58121000  1
  O  O11  1  0.85587000  0.49860000  0.58132000  1
  O  O12  1  0.85584000  0.49850000  0.41892000  1
  O  O13  1  0.91960000  0.60794000  0.58110000  1
  O  O14  1  0.91955000  0.60773000  0.41871000  1
  O  O15  1  0.98325000  0.49741000  0.41860000  1
  O  O16  1  0.98327000  0.49779000  0.58100000  1
  O  O17  1  0.67150000  0.54903000  0.29155000  1
  O  O18  1  0.61252000  0.44981000  0.32519000  1
