# generated using pymatgen
data_CuH11C18(NO4)2
_symmetry_space_group_name_H-M   'P 1'
_cell_length_a   17.37220000
_cell_length_b   34.99640000
_cell_length_c   10.00000000
_cell_angle_alpha   90.00000000
_cell_angle_beta   90.00000000
_cell_angle_gamma   90.09630000
_symmetry_Int_Tables_number   1
_chemical_formula_structural   CuH11C18(NO4)2
_chemical_formula_sum   'Cu4 H44 C72 N8 O32'
_cell_volume   6079.63601352
_cell_formula_units_Z   4
loop_
 _symmetry_equiv_pos_site_id
 _symmetry_equiv_pos_as_xyz
  1  'x, y, z'
loop_
 _atom_site_type_symbol
 _atom_site_label
 _atom_site_symmetry_multiplicity
 _atom_site_fract_x
 _atom_site_fract_y
 _atom_site_fract_z
 _atom_site_occupancy
  Cu  Cu1  1  0.49999000  0.50000000  0.62726000  1
  Cu  Cu2  1  0.50001000  0.50000000  0.37274000  1
  Cu  Cu3  1  0.50031000  0.00000000  0.28188000  1
  Cu  Cu4  1  0.49991000  0.00001000  0.53639000  1
  H  H1  1  0.50003000  0.88015000  0.62461000  1
  H  H2  1  0.50002000  0.81085000  0.62594000  1
  H  H3  1  0.49994000  0.68976000  0.71585000  1
  H  H4  1  0.50029000  0.68916000  0.28324000  1
  H  H5  1  0.50028000  0.74990000  0.30204000  1
  H  H6  1  0.50003000  0.75010000  0.60716000  1
  H  H7  1  0.49980000  0.11985000  0.62458000  1
  H  H8  1  0.49979000  0.18916000  0.62591000  1
  H  H9  1  0.49969000  0.31024000  0.71584000  1
  H  H10  1  0.50014000  0.31085000  0.28322000  1
  H  H11  1  0.50012000  0.25010000  0.30202000  1
  H  H12  1  0.49981000  0.24990000  0.60714000  1
  H  H13  1  0.12218000  0.49989000  0.71150000  1
  H  H14  1  0.12216000  0.50008000  0.28851000  1
  H  H15  1  0.87783000  0.49989000  0.71152000  1
  H  H16  1  0.87784000  0.50012000  0.28853000  1
  H  H17  1  0.12263000  0.00113000  0.20067000  1
  H  H18  1  0.12193000  0.00095000  0.62366000  1
  H  H19  1  0.87828000  0.00073000  0.19946000  1
  H  H20  1  0.87760000  0.00051000  0.62244000  1
  H  H21  1  0.54627000  0.84293000  0.07222000  1
  H  H22  1  0.54613000  0.76104000  0.23917000  1
  H  H23  1  0.45458000  0.65705000  0.16278000  1
  H  H24  1  0.54564000  0.65714000  0.83719000  1
  H  H25  1  0.45456000  0.15708000  0.07193000  1
  H  H26  1  0.45438000  0.23897000  0.23889000  1
  H  H27  1  0.54606000  0.34296000  0.16302000  1
  H  H28  1  0.45376000  0.34286000  0.83692000  1
  H  H29  1  0.32403000  0.51860000  0.76933000  1
  H  H30  1  0.25283000  0.48108000  0.83621000  1
  H  H31  1  0.32387000  0.48134000  0.23062000  1
  H  H32  1  0.25293000  0.51887000  0.16376000  1
  H  H33  1  0.67598000  0.48113000  0.76915000  1
  H  H34  1  0.74720000  0.51858000  0.83648000  1
  H  H35  1  0.67613000  0.51892000  0.23090000  1
  H  H36  1  0.74706000  0.48145000  0.16357000  1
  H  H37  1  0.32457000  0.98275000  0.14383000  1
  H  H38  1  0.25348000  0.02015000  0.07659000  1
  H  H39  1  0.32355000  0.02001000  0.68253000  1
  H  H40  1  0.25249000  0.98237000  0.74906000  1
  H  H41  1  0.67653000  0.01915000  0.14084000  1
  H  H42  1  0.74785000  0.98182000  0.07387000  1
  H  H43  1  0.67580000  0.98138000  0.67910000  1
  H  H44  1  0.74662000  0.01896000  0.74676000  1
  C  C1  1  0.64437000  0.50003000  0.50002000  1
  C  C2  1  0.35564000  0.49997000  0.49997000  1
  C  C3  1  0.49990000  0.42834000  0.49999000  1
  C  C4  1  0.50011000  0.57167000  0.50000000  1
  C  C5  1  0.64448000  0.00021000  0.40982000  1
  C  C6  1  0.35574000  0.99980000  0.40846000  1
  C  C7  1  0.50002000  0.07167000  0.40912000  1
  C  C8  1  0.50021000  0.92834000  0.40915000  1
  C  C9  1  0.50020000  0.88566000  0.40916000  1
  C  C10  1  0.50010000  0.86506000  0.53008000  1
  C  C11  1  0.50010000  0.82503000  0.53024000  1
  C  C12  1  0.50020000  0.80443000  0.40893000  1
  C  C13  1  0.50030000  0.82510000  0.28832000  1
  C  C14  1  0.50030000  0.86509000  0.28824000  1
  C  C15  1  0.50020000  0.76182000  0.40144000  1
  C  C16  1  0.50011000  0.73818000  0.50777000  1
  C  C17  1  0.50002000  0.67490000  0.62087000  1
  C  C18  1  0.50012000  0.69557000  0.50026000  1
  C  C19  1  0.50021000  0.67498000  0.37894000  1
  C  C20  1  0.50021000  0.63495000  0.37910000  1
  C  C21  1  0.50011000  0.61434000  0.50001000  1
  C  C22  1  0.50001000  0.63491000  0.62094000  1
  C  C23  1  0.50002000  0.11434000  0.40913000  1
  C  C24  1  0.49989000  0.13495000  0.53004000  1
  C  C25  1  0.49989000  0.17498000  0.53022000  1
  C  C26  1  0.50001000  0.19557000  0.40890000  1
  C  C27  1  0.50014000  0.17491000  0.28829000  1
  C  C28  1  0.50014000  0.13492000  0.28821000  1
  C  C29  1  0.50002000  0.23818000  0.40142000  1
  C  C30  1  0.49991000  0.26182000  0.50774000  1
  C  C31  1  0.49979000  0.32510000  0.62085000  1
  C  C32  1  0.49991000  0.30443000  0.50024000  1
  C  C33  1  0.50004000  0.32503000  0.37892000  1
  C  C34  1  0.50003000  0.36505000  0.37909000  1
  C  C35  1  0.49991000  0.38566000  0.50000000  1
  C  C36  1  0.49978000  0.36509000  0.62092000  1
  C  C37  1  0.27407000  0.49997000  0.49998000  1
  C  C38  1  0.23168000  0.49992000  0.62133000  1
  C  C39  1  0.15062000  0.49993000  0.62170000  1
  C  C40  1  0.10954000  0.49998000  0.50001000  1
  C  C41  1  0.15061000  0.50004000  0.37830000  1
  C  C42  1  0.23167000  0.50003000  0.37865000  1
  C  C43  1  0.03442000  0.49999000  0.50002000  1
  C  C44  1  0.96559000  0.50000000  0.50003000  1
  C  C45  1  0.89047000  0.50000000  0.50003000  1
  C  C46  1  0.84939000  0.49994000  0.62173000  1
  C  C47  1  0.76833000  0.49995000  0.62137000  1
  C  C48  1  0.72594000  0.50002000  0.50003000  1
  C  C49  1  0.76834000  0.50008000  0.37869000  1
  C  C50  1  0.84939000  0.50007000  0.37833000  1
  C  C51  1  0.27417000  0.00129000  0.41293000  1
  C  C52  1  0.23198000  0.00127000  0.29138000  1
  C  C53  1  0.15092000  0.00114000  0.29061000  1
  C  C54  1  0.10965000  0.00102000  0.41210000  1
  C  C55  1  0.15052000  0.00103000  0.53401000  1
  C  C56  1  0.23158000  0.00117000  0.53405000  1
  C  C57  1  0.03453000  0.00089000  0.41172000  1
  C  C58  1  0.96570000  0.00077000  0.41137000  1
  C  C59  1  0.89058000  0.00064000  0.41101000  1
  C  C60  1  0.84970000  0.00063000  0.28911000  1
  C  C61  1  0.76864000  0.00049000  0.28908000  1
  C  C62  1  0.72605000  0.00035000  0.41021000  1
  C  C63  1  0.76825000  0.00037000  0.53176000  1
  C  C64  1  0.84930000  0.00051000  0.53251000  1
  C  C65  1  0.50041000  0.88621000  0.15562000  1
  C  C66  1  0.50040000  0.80426000  0.15516000  1
  C  C67  1  0.50031000  0.61379000  0.24656000  1
  C  C68  1  0.49991000  0.61379000  0.75355000  1
  C  C69  1  0.50028000  0.11380000  0.15559000  1
  C  C70  1  0.50028000  0.19575000  0.15514000  1
  C  C71  1  0.50017000  0.38621000  0.24655000  1
  C  C72  1  0.49965000  0.38621000  0.75354000  1
  N  N1  1  0.27318000  0.49986000  0.75401000  1
  N  N2  1  0.27315000  0.50009000  0.24596000  1
  N  N3  1  0.72684000  0.49988000  0.75405000  1
  N  N4  1  0.72684000  0.50016000  0.24600000  1
  N  N5  1  0.27369000  0.00140000  0.15890000  1
  N  N6  1  0.27285000  0.00119000  0.66695000  1
  N  N7  1  0.72736000  0.00049000  0.15619000  1
  N  N8  1  0.72654000  0.00022000  0.66424000  1
  O  O1  1  0.60008000  0.49998000  0.61870000  1
  O  O2  1  0.39971000  0.49992000  0.61866000  1
  O  O3  1  0.49978000  0.45021000  0.61868000  1
  O  O4  1  0.50001000  0.54968000  0.61868000  1
  O  O5  1  0.50020000  0.54979000  0.38132000  1
  O  O6  1  0.50003000  0.45032000  0.38132000  1
  O  O7  1  0.39984000  0.49997000  0.38130000  1
  O  O8  1  0.60030000  0.50010000  0.38134000  1
  O  O9  1  0.60038000  0.00019000  0.29092000  1
  O  O10  1  0.40001000  0.99992000  0.28999000  1
  O  O11  1  0.50009000  0.04979000  0.29044000  1
  O  O12  1  0.50030000  0.95032000  0.29047000  1
  O  O13  1  0.50011000  0.95021000  0.52783000  1
  O  O14  1  0.49995000  0.04968000  0.52780000  1
  O  O15  1  0.39976000  0.99987000  0.52734000  1
  O  O16  1  0.60022000  0.00007000  0.52828000  1
  O  O17  1  0.53412000  0.87054000  0.04993000  1
  O  O18  1  0.47106000  0.91813000  0.14750000  1
  O  O19  1  0.53404000  0.77035000  0.14545000  1
  O  O20  1  0.47112000  0.81929000  0.05615000  1
  O  O21  1  0.46677000  0.62943000  0.14064000  1
  O  O22  1  0.52968000  0.58187000  0.23869000  1
  O  O23  1  0.53345000  0.62951000  0.85941000  1
  O  O24  1  0.47054000  0.58182000  0.76152000  1
  O  O25  1  0.46676000  0.12946000  0.04971000  1
  O  O26  1  0.52965000  0.08187000  0.14763000  1
  O  O27  1  0.46666000  0.22966000  0.14524000  1
  O  O28  1  0.52974000  0.18072000  0.05629000  1
  O  O29  1  0.53391000  0.37058000  0.14082000  1
  O  O30  1  0.47081000  0.41814000  0.23852000  1
  O  O31  1  0.46591000  0.37049000  0.85921000  1
  O  O32  1  0.52899000  0.41819000  0.76167000  1
