# generated using pymatgen
data_CuH15C23N6ClO4
_symmetry_space_group_name_H-M   'P 1'
_cell_length_a   31.21260000
_cell_length_b   21.09300000
_cell_length_c   21.09210000
_cell_angle_alpha   120.02800000
_cell_angle_beta   44.87760000
_cell_angle_gamma   135.12500000
_symmetry_Int_Tables_number   1
_chemical_formula_structural   CuH15C23N6ClO4
_chemical_formula_sum   'Cu4 H60 C92 N24 Cl4 O16'
_cell_volume   6913.15304024
_cell_formula_units_Z   4
loop_
 _symmetry_equiv_pos_site_id
 _symmetry_equiv_pos_as_xyz
  1  'x, y, z'
loop_
 _atom_site_type_symbol
 _atom_site_label
 _atom_site_symmetry_multiplicity
 _atom_site_fract_x
 _atom_site_fract_y
 _atom_site_fract_z
 _atom_site_occupancy
  Cu  Cu1  1  0.46294000  0.50380000  0.49620000  1
  Cu  Cu2  1  0.53706000  0.49621000  0.50379000  1
  Cu  Cu3  1  0.03706000  0.49621000  0.50379000  1
  Cu  Cu4  1  0.96294000  0.50379000  0.49620000  1
  H  H1  1  0.79976000  0.40754000  0.59246000  1
  H  H2  1  0.72844000  0.41535000  0.58466000  1
  H  H3  1  0.93256000  0.61947000  0.38053000  1
  H  H4  1  0.56744000  0.38054000  0.61947000  1
  H  H5  1  0.77157000  0.58466000  0.41534000  1
  H  H6  1  0.70025000  0.59246000  0.40753000  1
  H  H7  1  0.20025000  0.59246000  0.40753000  1
  H  H8  1  0.27157000  0.58466000  0.41534000  1
  H  H9  1  0.06744000  0.38054000  0.61947000  1
  H  H10  1  0.43256000  0.61947000  0.38053000  1
  H  H11  1  0.22844000  0.41535000  0.58466000  1
  H  H12  1  0.29976000  0.40754000  0.59246000  1
  H  H13  1  0.41972000  0.21603000  0.50582000  1
  H  H14  1  0.30225000  0.22802000  0.49428000  1
  H  H15  1  0.08029000  0.78398000  0.49416000  1
  H  H16  1  0.19776000  0.77199000  0.50571000  1
  H  H17  1  0.69773000  0.77198000  0.50576000  1
  H  H18  1  0.58033000  0.78399000  0.49411000  1
  H  H19  1  0.80232000  0.22803000  0.49419000  1
  H  H20  1  0.91972000  0.21602000  0.50584000  1
  H  H21  1  0.69776000  0.49431000  0.22803000  1
  H  H22  1  0.58028000  0.50581000  0.21600000  1
  H  H23  1  0.80225000  0.50570000  0.77197000  1
  H  H24  1  0.91973000  0.49420000  0.78399000  1
  H  H25  1  0.41973000  0.49416000  0.78397000  1
  H  H26  1  0.30237000  0.50593000  0.77198000  1
  H  H27  1  0.08062000  0.50644000  0.21602000  1
  H  H28  1  0.19798000  0.49468000  0.22801000  1
  H  H29  1  0.26146000  0.83478000  0.55485000  1
  H  H30  1  0.36644000  0.91612000  0.46868000  1
  H  H31  1  0.45935000  0.14268000  0.46684000  1
  H  H32  1  0.39309000  0.05740000  0.55681000  1
  H  H33  1  0.08472000  0.85748000  0.44506000  1
  H  H34  1  0.06287000  0.94245000  0.53127000  1
  H  H35  1  0.19449000  0.16506000  0.53323000  1
  H  H36  1  0.17763000  0.08405000  0.44321000  1
  H  H37  1  0.95932000  0.14266000  0.46691000  1
  H  H38  1  0.89304000  0.05738000  0.55690000  1
  H  H39  1  0.76141000  0.83477000  0.55494000  1
  H  H40  1  0.86639000  0.91610000  0.46879000  1
  H  H41  1  0.69457000  0.16508000  0.53310000  1
  H  H42  1  0.67772000  0.08407000  0.44308000  1
  H  H43  1  0.58479000  0.85750000  0.44495000  1
  H  H44  1  0.56295000  0.94247000  0.53114000  1
  H  H45  1  0.91530000  0.44512000  0.85751000  1
  H  H46  1  0.93715000  0.53133000  0.94248000  1
  H  H47  1  0.80552000  0.53328000  0.16508000  1
  H  H48  1  0.82239000  0.44327000  0.08407000  1
  H  H49  1  0.73854000  0.55482000  0.83475000  1
  H  H50  1  0.63357000  0.46865000  0.91608000  1
  H  H51  1  0.54066000  0.46680000  0.14265000  1
  H  H52  1  0.60691000  0.55677000  0.05736000  1
  H  H53  1  0.30570000  0.53347000  0.16502000  1
  H  H54  1  0.32243000  0.44334000  0.08408000  1
  H  H55  1  0.41524000  0.44502000  0.85752000  1
  H  H56  1  0.43719000  0.53127000  0.94240000  1
  H  H57  1  0.04098000  0.46750000  0.14271000  1
  H  H58  1  0.10729000  0.55743000  0.05735000  1
  H  H59  1  0.23878000  0.55523000  0.83474000  1
  H  H60  1  0.13379000  0.46918000  0.91615000  1
  C  C1  1  0.58422000  0.50008000  0.33164000  1
  C  C2  1  0.41579000  0.49992000  0.66835000  1
  C  C3  1  0.41578000  0.33165000  0.50008000  1
  C  C4  1  0.58422000  0.66836000  0.49991000  1
  C  C5  1  0.91578000  0.33165000  0.50009000  1
  C  C6  1  0.08423000  0.66836000  0.49991000  1
  C  C7  1  0.08421000  0.50007000  0.33164000  1
  C  C8  1  0.91579000  0.49993000  0.66835000  1
  C  C9  1  0.82932000  0.45404000  0.54597000  1
  C  C10  1  0.78865000  0.45836000  0.54164000  1
  C  C11  1  0.82561000  0.51809000  0.48191000  1
  C  C12  1  0.90360000  0.57326000  0.42674000  1
  C  C13  1  0.94447000  0.56915000  0.43085000  1
  C  C14  1  0.59641000  0.42675000  0.57325000  1
  C  C15  1  0.67439000  0.48191000  0.51809000  1
  C  C16  1  0.71136000  0.54164000  0.45836000  1
  C  C17  1  0.67069000  0.54597000  0.45403000  1
  C  C18  1  0.55554000  0.43086000  0.56915000  1
  C  C19  1  0.17069000  0.54597000  0.45403000  1
  C  C20  1  0.21136000  0.54164000  0.45836000  1
  C  C21  1  0.17439000  0.48191000  0.51809000  1
  C  C22  1  0.09641000  0.42675000  0.57325000  1
  C  C23  1  0.05554000  0.43086000  0.56915000  1
  C  C24  1  0.40360000  0.57326000  0.42674000  1
  C  C25  1  0.32561000  0.51809000  0.48191000  1
  C  C26  1  0.28865000  0.45837000  0.54164000  1
  C  C27  1  0.32932000  0.45404000  0.54597000  1
  C  C28  1  0.44447000  0.56915000  0.43085000  1
  C  C29  1  0.38109000  0.18916000  0.50346000  1
  C  C30  1  0.33244000  0.09541000  0.50327000  1
  C  C31  1  0.34039000  0.04002000  0.50658000  1
  C  C32  1  0.31158000  0.19626000  0.49662000  1
  C  C33  1  0.26633000  0.10216000  0.49677000  1
  C  C34  1  0.20646000  0.05369000  0.49342000  1
  C  C35  1  0.11892000  0.81084000  0.49653000  1
  C  C36  1  0.16757000  0.90460000  0.49672000  1
  C  C37  1  0.15962000  0.95999000  0.49340000  1
  C  C38  1  0.18843000  0.80374000  0.50336000  1
  C  C39  1  0.23368000  0.89785000  0.50322000  1
  C  C40  1  0.29355000  0.94631000  0.50656000  1
  C  C41  1  0.37091000  0.24187000  0.50005000  1
  C  C42  1  0.27216000  0.04432000  0.50000000  1
  C  C43  1  0.12910000  0.75813000  0.49993000  1
  C  C44  1  0.22785000  0.95569000  0.49998000  1
  C  C45  1  0.68842000  0.80374000  0.50339000  1
  C  C46  1  0.73368000  0.89784000  0.50323000  1
  C  C47  1  0.79353000  0.94631000  0.50661000  1
  C  C48  1  0.61894000  0.81085000  0.49649000  1
  C  C49  1  0.66760000  0.90460000  0.49668000  1
  C  C50  1  0.65967000  0.96000000  0.49332000  1
  C  C51  1  0.81163000  0.19627000  0.49656000  1
  C  C52  1  0.76637000  0.10216000  0.49672000  1
  C  C53  1  0.70652000  0.05370000  0.49334000  1
  C  C54  1  0.88111000  0.18916000  0.50346000  1
  C  C55  1  0.83245000  0.09540000  0.50327000  1
  C  C56  1  0.84037000  0.04001000  0.50663000  1
  C  C57  1  0.62911000  0.75814000  0.49993000  1
  C  C58  1  0.72787000  0.95569000  0.49997000  1
  C  C59  1  0.87094000  0.24187000  0.50002000  1
  C  C60  1  0.77218000  0.04432000  0.49998000  1
  C  C61  1  0.68843000  0.49665000  0.19626000  1
  C  C62  1  0.73368000  0.49679000  0.10216000  1
  C  C63  1  0.79355000  0.49346000  0.05370000  1
  C  C64  1  0.61891000  0.50345000  0.18915000  1
  C  C65  1  0.66757000  0.50327000  0.09539000  1
  C  C66  1  0.65962000  0.50657000  0.03999000  1
  C  C67  1  0.81158000  0.50336000  0.80373000  1
  C  C68  1  0.76632000  0.50322000  0.89784000  1
  C  C69  1  0.70646000  0.50655000  0.94629000  1
  C  C70  1  0.88110000  0.49656000  0.81085000  1
  C  C71  1  0.83244000  0.49675000  0.90460000  1
  C  C72  1  0.84039000  0.49344000  0.96000000  1
  C  C73  1  0.62910000  0.50006000  0.24186000  1
  C  C74  1  0.72785000  0.50002000  0.04431000  1
  C  C75  1  0.87091000  0.49995000  0.75813000  1
  C  C76  1  0.77215000  0.49999000  0.95569000  1
  C  C77  1  0.38113000  0.49660000  0.81084000  1
  C  C78  1  0.33253000  0.49688000  0.90459000  1
  C  C79  1  0.34047000  0.49354000  0.95998000  1
  C  C80  1  0.31168000  0.50356000  0.80374000  1
  C  C81  1  0.26648000  0.50350000  0.89784000  1
  C  C82  1  0.20667000  0.50696000  0.94631000  1
  C  C83  1  0.11921000  0.50401000  0.18916000  1
  C  C84  1  0.16782000  0.50373000  0.09540000  1
  C  C85  1  0.15988000  0.50707000  0.04001000  1
  C  C86  1  0.18866000  0.49705000  0.19625000  1
  C  C87  1  0.23387000  0.49711000  0.10215000  1
  C  C88  1  0.29368000  0.49365000  0.05368000  1
  C  C89  1  0.37096000  0.50002000  0.75813000  1
  C  C90  1  0.27230000  0.50025000  0.95569000  1
  C  C91  1  0.12939000  0.50059000  0.24186000  1
  C  C92  1  0.22805000  0.50036000  0.04431000  1
  N  N1  1  0.90786000  0.50943000  0.49057000  1
  N  N2  1  0.78549000  0.52407000  0.47593000  1
  N  N3  1  0.71451000  0.47594000  0.52406000  1
  N  N4  1  0.59214000  0.49057000  0.50943000  1
  N  N5  1  0.09214000  0.49057000  0.50943000  1
  N  N6  1  0.21451000  0.47594000  0.52406000  1
  N  N7  1  0.28549000  0.52407000  0.47593000  1
  N  N8  1  0.40787000  0.50943000  0.49057000  1
  N  N9  1  0.30847000  0.89449000  0.51037000  1
  N  N10  1  0.40315000  0.08391000  0.51041000  1
  N  N11  1  0.09686000  0.91610000  0.48957000  1
  N  N12  1  0.19154000  0.10551000  0.48962000  1
  N  N13  1  0.90312000  0.08389000  0.51049000  1
  N  N14  1  0.80843000  0.89448000  0.51045000  1
  N  N15  1  0.69162000  0.10553000  0.48950000  1
  N  N16  1  0.59693000  0.91611000  0.48946000  1
  N  N17  1  0.90316000  0.48963000  0.91612000  1
  N  N18  1  0.80847000  0.48967000  0.10553000  1
  N  N19  1  0.69154000  0.51034000  0.89446000  1
  N  N20  1  0.59685000  0.51039000  0.08387000  1
  N  N21  1  0.30858000  0.48982000  0.10550000  1
  N  N22  1  0.40317000  0.48960000  0.91609000  1
  N  N23  1  0.09718000  0.51101000  0.08390000  1
  N  N24  1  0.19176000  0.51079000  0.89449000  1
  Cl  Cl1  1  0.04245000  0.63957000  0.36042000  1
  Cl  Cl2  1  0.45755000  0.36043000  0.63957000  1
  Cl  Cl3  1  0.95755000  0.36043000  0.63957000  1
  Cl  Cl4  1  0.54245000  0.63957000  0.36042000  1
  O  O1  1  0.52377000  0.50349000  0.37974000  1
  O  O2  1  0.40686000  0.50333000  0.61341000  1
  O  O3  1  0.40684000  0.38657000  0.49669000  1
  O  O4  1  0.52379000  0.62024000  0.49647000  1
  O  O5  1  0.59315000  0.61343000  0.50334000  1
  O  O6  1  0.47623000  0.37976000  0.50349000  1
  O  O7  1  0.47612000  0.49639000  0.62035000  1
  O  O8  1  0.59316000  0.49671000  0.38658000  1
  O  O9  1  0.97623000  0.37975000  0.50349000  1
  O  O10  1  0.09315000  0.61342000  0.50332000  1
  O  O11  1  0.09315000  0.49669000  0.38657000  1
  O  O12  1  0.97622000  0.49648000  0.62024000  1
  O  O13  1  0.90686000  0.50335000  0.61343000  1
  O  O14  1  0.02377000  0.50349000  0.37976000  1
  O  O15  1  0.02389000  0.62035000  0.49638000  1
  O  O16  1  0.90684000  0.38658000  0.49671000  1
