# generated using pymatgen
data_ZnH16C20NO8
_symmetry_space_group_name_H-M   'P 1'
_cell_length_a   16.73580000
_cell_length_b   17.72200000
_cell_length_c   10.90090000
_cell_angle_alpha   89.85160000
_cell_angle_beta   92.08530000
_cell_angle_gamma   84.91510000
_symmetry_Int_Tables_number   1
_chemical_formula_structural   ZnH16C20NO8
_chemical_formula_sum   'Zn2 H32 C40 N2 O16'
_cell_volume   3218.20641660
_cell_formula_units_Z   2
loop_
 _symmetry_equiv_pos_site_id
 _symmetry_equiv_pos_as_xyz
  1  'x, y, z'
loop_
 _atom_site_type_symbol
 _atom_site_label
 _atom_site_symmetry_multiplicity
 _atom_site_fract_x
 _atom_site_fract_y
 _atom_site_fract_z
 _atom_site_occupancy
  Zn  Zn1  1  0.59938000  0.49641000  0.50588000  1
  Zn  Zn2  1  0.40062000  0.50361000  0.49413000  1
  H  H1  1  0.27655000  0.42217000  0.62712000  1
  H  H2  1  0.13118000  0.42690000  0.61938000  1
  H  H3  1  0.87897000  0.40018000  0.66302000  1
  H  H4  1  0.86882000  0.57311000  0.38065000  1
  H  H5  1  0.99665000  0.56098000  0.40047000  1
  H  H6  1  0.00334000  0.43903000  0.59959000  1
  H  H7  1  0.38400000  0.26146000  0.49332000  1
  H  H8  1  0.39069000  0.12419000  0.49354000  1
  H  H9  1  0.34988000  0.88621000  0.49076000  1
  H  H10  1  0.60929000  0.87583000  0.50636000  1
  H  H11  1  0.59145000  0.99657000  0.50545000  1
  H  H12  1  0.40852000  0.00344000  0.49445000  1
  H  H13  1  0.34539000  0.59902000  0.33835000  1
  H  H14  1  0.04263000  0.61050000  0.31961000  1
  H  H15  1  0.64500000  0.58809000  0.35619000  1
  H  H16  1  0.65459000  0.40100000  0.66167000  1
  H  H17  1  0.64953000  0.32565000  0.50939000  1
  H  H18  1  0.66588000  0.03975000  0.50999000  1
  H  H19  1  0.63112000  0.66445000  0.50739000  1
  H  H20  1  0.35047000  0.67436000  0.49051000  1
  H  H21  1  0.31973000  0.46202000  0.87636000  1
  H  H22  1  0.35789000  0.50519000  0.77061000  1
  H  H23  1  0.31481000  0.55077000  0.87613000  1
  H  H24  1  0.68511000  0.44888000  0.12415000  1
  H  H25  1  0.64210000  0.49480000  0.22940000  1
  H  H26  1  0.68039000  0.53762000  0.12338000  1
  H  H27  1  0.31501000  0.55074000  0.10358000  1
  H  H28  1  0.35812000  0.50468000  0.21379000  1
  H  H29  1  0.31973000  0.46200000  0.10379000  1
  H  H30  1  0.68017000  0.53788000  0.89593000  1
  H  H31  1  0.64190000  0.49485000  0.78622000  1
  H  H32  1  0.68509000  0.44913000  0.89671000  1
  C  C1  1  0.50796000  0.35236000  0.50090000  1
  C  C2  1  0.49988000  0.50004000  0.73927000  1
  C  C3  1  0.49204000  0.64766000  0.49900000  1
  C  C4  1  0.50013000  0.49972000  0.26074000  1
  C  C5  1  0.24294000  0.46109000  0.56356000  1
  C  C6  1  0.15896000  0.46407000  0.55870000  1
  C  C7  1  0.11326000  0.51412000  0.47698000  1
  C  C8  1  0.15415000  0.56074000  0.40085000  1
  C  C9  1  0.23805000  0.55774000  0.40576000  1
  C  C10  1  0.02370000  0.52035000  0.46680000  1
  C  C11  1  0.97629000  0.47965000  0.53325000  1
  C  C12  1  0.84584000  0.43927000  0.59919000  1
  C  C13  1  0.88674000  0.48589000  0.52306000  1
  C  C14  1  0.84103000  0.53594000  0.44134000  1
  C  C15  1  0.75706000  0.53892000  0.43647000  1
  C  C16  1  0.76194000  0.44228000  0.59427000  1
  C  C17  1  0.51257000  0.26782000  0.50107000  1
  C  C18  1  0.44230000  0.22955000  0.49679000  1
  C  C19  1  0.44653000  0.15026000  0.49694000  1
  C  C20  1  0.52148000  0.10688000  0.50139000  1
  C  C21  1  0.59156000  0.14527000  0.50566000  1
  C  C22  1  0.58728000  0.22449000  0.50551000  1
  C  C23  1  0.53058000  0.02230000  0.50182000  1
  C  C24  1  0.46939000  0.97772000  0.49808000  1
  C  C25  1  0.40843000  0.85475000  0.49424000  1
  C  C26  1  0.47849000  0.89314000  0.49851000  1
  C  C27  1  0.55345000  0.84977000  0.50297000  1
  C  C28  1  0.55768000  0.77047000  0.50312000  1
  C  C29  1  0.48742000  0.73220000  0.49884000  1
  C  C30  1  0.41271000  0.77552000  0.49440000  1
  C  C31  1  0.49994000  0.49996000  0.87151000  1
  C  C32  1  0.50007000  0.49980000  0.12850000  1
  C  C33  1  0.42807000  0.50248000  0.93225000  1
  C  C34  1  0.57194000  0.49728000  0.06776000  1
  C  C35  1  0.42813000  0.50240000  0.05986000  1
  C  C36  1  0.57188000  0.49736000  0.94015000  1
  C  C37  1  0.34743000  0.50539000  0.85662000  1
  C  C38  1  0.65258000  0.49437000  0.14339000  1
  C  C39  1  0.34756000  0.50523000  0.12662000  1
  C  C40  1  0.65245000  0.49453000  0.87339000  1
  N  N1  1  0.28370000  0.50785000  0.48722000  1
  N  N2  1  0.71629000  0.49217000  0.51281000  1
  O  O1  1  0.58733000  0.38787000  0.50606000  1
  O  O2  1  0.42438000  0.39379000  0.49580000  1
  O  O3  1  0.41837000  0.50298000  0.67205000  1
  O  O4  1  0.58133000  0.49718000  0.68177000  1
  O  O5  1  0.41266000  0.61215000  0.49417000  1
  O  O6  1  0.57562000  0.60623000  0.50397000  1
  O  O7  1  0.58163000  0.49688000  0.32796000  1
  O  O8  1  0.41866000  0.50297000  0.31824000  1
  O  O9  1  0.27941000  0.60885000  0.32230000  1
  O  O10  1  0.10794000  0.61524000  0.31186000  1
  O  O11  1  0.71020000  0.59320000  0.34784000  1
  O  O12  1  0.72057000  0.39117000  0.67772000  1
  O  O13  1  0.66408000  0.26331000  0.51018000  1
  O  O14  1  0.67319000  0.10139000  0.51051000  1
  O  O15  1  0.63898000  0.72599000  0.50795000  1
  O  O16  1  0.33591000  0.73670000  0.48972000  1
