# generated using pymatgen
data_Zn2H28C47N2O13
_symmetry_space_group_name_H-M   'P 1'
_cell_length_a   32.67020000
_cell_length_b   17.57240000
_cell_length_c   16.73770000
_cell_angle_alpha   90.04070000
_cell_angle_beta   89.86830000
_cell_angle_gamma   89.76970000
_symmetry_Int_Tables_number   1
_chemical_formula_structural   Zn2H28C47N2O13
_chemical_formula_sum   'Zn4 H56 C94 N4 O26'
_cell_volume   9608.90467699
_cell_formula_units_Z   2
loop_
 _symmetry_equiv_pos_site_id
 _symmetry_equiv_pos_as_xyz
  1  'x, y, z'
loop_
 _atom_site_type_symbol
 _atom_site_label
 _atom_site_symmetry_multiplicity
 _atom_site_fract_x
 _atom_site_fract_y
 _atom_site_fract_z
 _atom_site_occupancy
  Zn  Zn1  1  0.50000000  0.50001000  0.59904000  1
  Zn  Zn2  1  0.50001000  0.50002000  0.40096000  1
  Zn  Zn3  1  0.96213000  0.49776000  0.40096000  1
  Zn  Zn4  1  0.96212000  0.49800000  0.59904000  1
  H  H1  1  0.54595000  0.41503000  0.26938000  1
  H  H2  1  0.54599000  0.41494000  0.12653000  1
  H  H3  1  0.45408000  0.58501000  0.26991000  1
  H  H4  1  0.54592000  0.41498000  0.73008000  1
  H  H5  1  0.45408000  0.58501000  0.73063000  1
  H  H6  1  0.45404000  0.58509000  0.87348000  1
  H  H7  1  0.50016000  0.25696000  0.62619000  1
  H  H8  1  0.50009000  0.12090000  0.62634000  1
  H  H9  1  0.50004000  0.25674000  0.37371000  1
  H  H10  1  0.49989000  0.74328000  0.62630000  1
  H  H11  1  0.49982000  0.74307000  0.37383000  1
  H  H12  1  0.49988000  0.87913000  0.37368000  1
  H  H13  1  0.63000000  0.49952000  0.37964000  1
  H  H14  1  0.62966000  0.49966000  0.62017000  1
  H  H15  1  0.83213000  0.49873000  0.62036000  1
  H  H16  1  0.83248000  0.49859000  0.37983000  1
  H  H17  1  0.09309000  0.49758000  0.37365000  1
  H  H18  1  0.16628000  0.49815000  0.37358000  1
  H  H19  1  0.09275000  0.49736000  0.62613000  1
  H  H20  1  0.36939000  0.49972000  0.37387000  1
  H  H21  1  0.36903000  0.49942000  0.62634000  1
  H  H22  1  0.29585000  0.49887000  0.62640000  1
  H  H23  1  0.91632000  0.41243000  0.73060000  1
  H  H24  1  0.91628000  0.41250000  0.87345000  1
  H  H25  1  0.00791000  0.58156000  0.73011000  1
  H  H26  1  0.91635000  0.41301000  0.26990000  1
  H  H27  1  0.00791000  0.58219000  0.26939000  1
  H  H28  1  0.00795000  0.58210000  0.12654000  1
  H  H29  1  0.96072000  0.25469000  0.37398000  1
  H  H30  1  0.96101000  0.11863000  0.37379000  1
  H  H31  1  0.96084000  0.25476000  0.62645000  1
  H  H32  1  0.96183000  0.74100000  0.37375000  1
  H  H33  1  0.96191000  0.74109000  0.62623000  1
  H  H34  1  0.96162000  0.87715000  0.62640000  1
  H  H35  1  0.44871000  0.59490000  0.04769000  1
  H  H36  1  0.55128000  0.40505000  0.95230000  1
  H  H37  1  0.49993000  0.04503000  0.35904000  1
  H  H38  1  0.49999000  0.95498000  0.64100000  1
  H  H39  1  0.20659000  0.49822000  0.64094000  1
  H  H40  1  0.25554000  0.49889000  0.35903000  1
  H  H41  1  0.01326000  0.59166000  0.95233000  1
  H  H42  1  0.91101000  0.40287000  0.04769000  1
  H  H43  1  0.96130000  0.04307000  0.64108000  1
  H  H44  1  0.96139000  0.95269000  0.35910000  1
  H  H45  1  0.76764000  0.54347000  0.25159000  1
  H  H46  1  0.80421000  0.49855000  0.28987000  1
  H  H47  1  0.76762000  0.45426000  0.25148000  1
  H  H48  1  0.69520000  0.45448000  0.25151000  1
  H  H49  1  0.65852000  0.49945000  0.28973000  1
  H  H50  1  0.69522000  0.54369000  0.25142000  1
  H  H51  1  0.76701000  0.45444000  0.74848000  1
  H  H52  1  0.80361000  0.49903000  0.71027000  1
  H  H53  1  0.76684000  0.54365000  0.74859000  1
  H  H54  1  0.69441000  0.54410000  0.74842000  1
  H  H55  1  0.65792000  0.49947000  0.71013000  1
  H  H56  1  0.69458000  0.45489000  0.74851000  1
  C  C1  1  0.50015000  0.35159000  0.49993000  1
  C  C2  1  0.57984000  0.49982000  0.49986000  1
  C  C3  1  0.49982000  0.64844000  0.50008000  1
  C  C4  1  0.42017000  0.49994000  0.50015000  1
  C  C5  1  0.96223000  0.34946000  0.50004000  1
  C  C6  1  0.88229000  0.49843000  0.50015000  1
  C  C7  1  0.96207000  0.64631000  0.49996000  1
  C  C8  1  0.04197000  0.49708000  0.49985000  1
  C  C9  1  0.52639000  0.45121000  0.24030000  1
  C  C10  1  0.52647000  0.45106000  0.15616000  1
  C  C11  1  0.50001000  0.50000000  0.11369000  1
  C  C12  1  0.47355000  0.54896000  0.15647000  1
  C  C13  1  0.47363000  0.54882000  0.24060000  1
  C  C14  1  0.50001000  0.50000000  0.03572000  1
  C  C15  1  0.50001000  0.49999000  0.96428000  1
  C  C16  1  0.50000000  0.49999000  0.88631000  1
  C  C17  1  0.52645000  0.45103000  0.84352000  1
  C  C18  1  0.52637000  0.45117000  0.75939000  1
  C  C19  1  0.47363000  0.54882000  0.75971000  1
  C  C20  1  0.47355000  0.54896000  0.84384000  1
  C  C21  1  0.50011000  0.27095000  0.49995000  1
  C  C22  1  0.50012000  0.22910000  0.57245000  1
  C  C23  1  0.50008000  0.14897000  0.57269000  1
  C  C24  1  0.50003000  0.10830000  0.49999000  1
  C  C25  1  0.50001000  0.14884000  0.42727000  1
  C  C26  1  0.50005000  0.22897000  0.42746000  1
  C  C27  1  0.49999000  0.03403000  0.50001000  1
  C  C28  1  0.49996000  0.96599000  0.50003000  1
  C  C29  1  0.49992000  0.89173000  0.50004000  1
  C  C30  1  0.49993000  0.85118000  0.57275000  1
  C  C31  1  0.49989000  0.77104000  0.57255000  1
  C  C32  1  0.49985000  0.72908000  0.50006000  1
  C  C33  1  0.49985000  0.77093000  0.42756000  1
  C  C34  1  0.49988000  0.85106000  0.42734000  1
  C  C35  1  0.64330000  0.49949000  0.42874000  1
  C  C36  1  0.68612000  0.49929000  0.43227000  1
  C  C37  1  0.70990000  0.49914000  0.36287000  1
  C  C38  1  0.64309000  0.49957000  0.57109000  1
  C  C39  1  0.68593000  0.49937000  0.56764000  1
  C  C40  1  0.70951000  0.49930000  0.63709000  1
  C  C41  1  0.81884000  0.49876000  0.57126000  1
  C  C42  1  0.77601000  0.49896000  0.56773000  1
  C  C43  1  0.75223000  0.49911000  0.63714000  1
  C  C44  1  0.81904000  0.49868000  0.42891000  1
  C  C45  1  0.77620000  0.49888000  0.43236000  1
  C  C46  1  0.75263000  0.49895000  0.36291000  1
  C  C47  1  0.62078000  0.49963000  0.49989000  1
  C  C48  1  0.71086000  0.49922000  0.49998000  1
  C  C49  1  0.84135000  0.49862000  0.50011000  1
  C  C50  1  0.75127000  0.49903000  0.50002000  1
  C  C51  1  0.08534000  0.49741000  0.49988000  1
  C  C52  1  0.10798000  0.49765000  0.42740000  1
  C  C53  1  0.15108000  0.49798000  0.42722000  1
  C  C54  1  0.17282000  0.49808000  0.49995000  1
  C  C55  1  0.15088000  0.49785000  0.57264000  1
  C  C56  1  0.10778000  0.49752000  0.57239000  1
  C  C57  1  0.21277000  0.49839000  0.49997000  1
  C  C58  1  0.24936000  0.49867000  0.49999000  1
  C  C59  1  0.28931000  0.49897000  0.50003000  1
  C  C60  1  0.31125000  0.49922000  0.42734000  1
  C  C61  1  0.35435000  0.49954000  0.42759000  1
  C  C62  1  0.37679000  0.49962000  0.50011000  1
  C  C63  1  0.35415000  0.49937000  0.57258000  1
  C  C64  1  0.31105000  0.49905000  0.57276000  1
  C  C65  1  0.93582000  0.44847000  0.75969000  1
  C  C66  1  0.93575000  0.44841000  0.84382000  1
  C  C67  1  0.96213000  0.49716000  0.88631000  1
  C  C68  1  0.98850000  0.54582000  0.84354000  1
  C  C69  1  0.98842000  0.54559000  0.75941000  1
  C  C70  1  0.96213000  0.49725000  0.96428000  1
  C  C71  1  0.96213000  0.49732000  0.03572000  1
  C  C72  1  0.96213000  0.49741000  0.11369000  1
  C  C73  1  0.93576000  0.44874000  0.15647000  1
  C  C74  1  0.93584000  0.44899000  0.24060000  1
  C  C75  1  0.98842000  0.54614000  0.24030000  1
  C  C76  1  0.98850000  0.54619000  0.15617000  1
  C  C77  1  0.96075000  0.26883000  0.50022000  1
  C  C78  1  0.96080000  0.22690000  0.42771000  1
  C  C79  1  0.96098000  0.14676000  0.42745000  1
  C  C80  1  0.96110000  0.10617000  0.50014000  1
  C  C81  1  0.96104000  0.14680000  0.57287000  1
  C  C82  1  0.96087000  0.22693000  0.57270000  1
  C  C83  1  0.96126000  0.03191000  0.50011000  1
  C  C84  1  0.96140000  0.96387000  0.50007000  1
  C  C85  1  0.96156000  0.88960000  0.50005000  1
  C  C86  1  0.96162000  0.84897000  0.42732000  1
  C  C87  1  0.96179000  0.76883000  0.42751000  1
  C  C88  1  0.96190000  0.72695000  0.49999000  1
  C  C89  1  0.96183000  0.76888000  0.57250000  1
  C  C90  1  0.96166000  0.84902000  0.57274000  1
  C  C91  1  0.77518000  0.49879000  0.28117000  1
  C  C92  1  0.68758000  0.49920000  0.28108000  1
  C  C93  1  0.77455000  0.49905000  0.71892000  1
  C  C94  1  0.68695000  0.49945000  0.71884000  1
  N  N1  1  0.50001000  0.50002000  0.28445000  1
  N  N2  1  0.50000000  0.50000000  0.71555000  1
  N  N3  1  0.96212000  0.49698000  0.71555000  1
  N  N4  1  0.96213000  0.49762000  0.28445000  1
  O  O1  1  0.50030000  0.39025000  0.58112000  1
  O  O2  1  0.50010000  0.39027000  0.41872000  1
  O  O3  1  0.55902000  0.49987000  0.41863000  1
  O  O4  1  0.55904000  0.49996000  0.58103000  1
  O  O5  1  0.49978000  0.60978000  0.41888000  1
  O  O6  1  0.49983000  0.60975000  0.58128000  1
  O  O7  1  0.44098000  0.50000000  0.58137000  1
  O  O8  1  0.44096000  0.50019000  0.41897000  1
  O  O9  1  0.96201000  0.38802000  0.41886000  1
  O  O10  1  0.96222000  0.38824000  0.58125000  1
  O  O11  1  0.90311000  0.49838000  0.58137000  1
  O  O12  1  0.90309000  0.49828000  0.41897000  1
  O  O13  1  0.96217000  0.60774000  0.58114000  1
  O  O14  1  0.96212000  0.60753000  0.41875000  1
  O  O15  1  0.02115000  0.49723000  0.41863000  1
  O  O16  1  0.02117000  0.49761000  0.58103000  1
  O  O17  1  0.44479000  0.60216000  0.11315000  1
  O  O18  1  0.55520000  0.39780000  0.88684000  1
  O  O19  1  0.49996000  0.10734000  0.34824000  1
  O  O20  1  0.49997000  0.89267000  0.65179000  1
  O  O21  1  0.17306000  0.49795000  0.65169000  1
  O  O22  1  0.28908000  0.49915000  0.34828000  1
  O  O23  1  0.01717000  0.59881000  0.88688000  1
  O  O24  1  0.90710000  0.39572000  0.11314000  1
  O  O25  1  0.96117000  0.10539000  0.65189000  1
  O  O26  1  0.96151000  0.89037000  0.34830000  1
