# generated using pymatgen
data_ZnH5C15BrN3O8
_symmetry_space_group_name_H-M   'P 1'
_cell_length_a   17.57240000
_cell_length_b   39.01430000
_cell_length_c   10.00000000
_cell_angle_alpha   90.00000000
_cell_angle_beta   90.00000000
_cell_angle_gamma   116.55500000
_symmetry_Int_Tables_number   1
_chemical_formula_structural   ZnH5C15BrN3O8
_chemical_formula_sum   'Zn4 H20 C60 Br4 N12 O32'
_cell_volume   6132.50594835
_cell_formula_units_Z   4
loop_
 _symmetry_equiv_pos_site_id
 _symmetry_equiv_pos_as_xyz
  1  'x, y, z'
loop_
 _atom_site_type_symbol
 _atom_site_label
 _atom_site_symmetry_multiplicity
 _atom_site_fract_x
 _atom_site_fract_y
 _atom_site_fract_z
 _atom_site_occupancy
  Zn  Zn1  1  0.50005000  0.50011000  0.66577000  1
  Zn  Zn2  1  0.49998000  0.49989000  0.33423000  1
  Zn  Zn3  1  0.99769000  0.99991000  0.23657000  1
  Zn  Zn4  1  0.99801000  0.00013000  0.56810000  1
  H  H1  1  0.87547000  0.87693000  0.61823000  1
  H  H2  1  0.80515000  0.80631000  0.61715000  1
  H  H3  1  0.69299000  0.69366000  0.71491000  1
  H  H4  1  0.69307000  0.69371000  0.28519000  1
  H  H5  1  0.12028000  0.12305000  0.61785000  1
  H  H6  1  0.19150000  0.19368000  0.61698000  1
  H  H7  1  0.30496000  0.30630000  0.71507000  1
  H  H8  1  0.30549000  0.30634000  0.28535000  1
  H  H9  1  0.25717000  0.50029000  0.71121000  1
  H  H10  1  0.12104000  0.50023000  0.71147000  1
  H  H11  1  0.25672000  0.49990000  0.28863000  1
  H  H12  1  0.74324000  0.50004000  0.71139000  1
  H  H13  1  0.74285000  0.49969000  0.28881000  1
  H  H14  1  0.87897000  0.49975000  0.28857000  1
  H  H15  1  0.75328000  0.99856000  0.19140000  1
  H  H16  1  0.61750000  0.99883000  0.19109000  1
  H  H17  1  0.75357000  0.99895000  0.61398000  1
  H  H18  1  0.24064000  0.99960000  0.19103000  1
  H  H19  1  0.24090000  0.99995000  0.61361000  1
  H  H20  1  0.37670000  0.99969000  0.61390000  1
  C  C1  1  0.35173000  0.50014000  0.49988000  1
  C  C2  1  0.57460000  0.57474000  0.49974000  1
  C  C3  1  0.64827000  0.49983000  0.50013000  1
  C  C4  1  0.42517000  0.42526000  0.50026000  1
  C  C5  1  0.84952000  0.00011000  0.40240000  1
  C  C6  1  0.92362000  0.92528000  0.40259000  1
  C  C7  1  0.14621000  0.99996000  0.40226000  1
  C  C8  1  0.07182000  0.07476000  0.40207000  1
  C  C9  1  0.88103000  0.88251000  0.40252000  1
  C  C10  1  0.86044000  0.86183000  0.52364000  1
  C  C11  1  0.82045000  0.82166000  0.52325000  1
  C  C12  1  0.80024000  0.80136000  0.40193000  1
  C  C13  1  0.82054000  0.82175000  0.28137000  1
  C  C14  1  0.86052000  0.86190000  0.28129000  1
  C  C15  1  0.67768000  0.67827000  0.62097000  1
  C  C16  1  0.69798000  0.69866000  0.50040000  1
  C  C17  1  0.67777000  0.67835000  0.37908000  1
  C  C18  1  0.63778000  0.63819000  0.37870000  1
  C  C19  1  0.61719000  0.61751000  0.49981000  1
  C  C20  1  0.63770000  0.63812000  0.62104000  1
  C  C21  1  0.11495000  0.11753000  0.40213000  1
  C  C22  1  0.13564000  0.13818000  0.52330000  1
  C  C23  1  0.17614000  0.17834000  0.52304000  1
  C  C24  1  0.19678000  0.19867000  0.40178000  1
  C  C25  1  0.17638000  0.17832000  0.28115000  1
  C  C26  1  0.13590000  0.13817000  0.28096000  1
  C  C27  1  0.32060000  0.32171000  0.62118000  1
  C  C28  1  0.30021000  0.30135000  0.50056000  1
  C  C29  1  0.32085000  0.32168000  0.37930000  1
  C  C30  1  0.36135000  0.36184000  0.37903000  1
  C  C31  1  0.38204000  0.38250000  0.50021000  1
  C  C32  1  0.36109000  0.36185000  0.62138000  1
  C  C33  1  0.27105000  0.50010000  0.49991000  1
  C  C34  1  0.22925000  0.50019000  0.62127000  1
  C  C35  1  0.14908000  0.50016000  0.62166000  1
  C  C36  1  0.10832000  0.50002000  0.49998000  1
  C  C37  1  0.14882000  0.49993000  0.37827000  1
  C  C38  1  0.22899000  0.49997000  0.37859000  1
  C  C39  1  0.03403000  0.49999000  0.50002000  1
  C  C40  1  0.96595000  0.49996000  0.50005000  1
  C  C41  1  0.89166000  0.49993000  0.50006000  1
  C  C42  1  0.85114000  0.50001000  0.62177000  1
  C  C43  1  0.77098000  0.49998000  0.62143000  1
  C  C44  1  0.72894000  0.49986000  0.50011000  1
  C  C45  1  0.77075000  0.49978000  0.37876000  1
  C  C46  1  0.85092000  0.49981000  0.37838000  1
  C  C47  1  0.76750000  0.99872000  0.40270000  1
  C  C48  1  0.72559000  0.99870000  0.28133000  1
  C  C49  1  0.64562000  0.99886000  0.28091000  1
  C  C50  1  0.60518000  0.99905000  0.40258000  1
  C  C51  1  0.64578000  0.99908000  0.52430000  1
  C  C52  1  0.72576000  0.99892000  0.52401000  1
  C  C53  1  0.53106000  0.99920000  0.40251000  1
  C  C54  1  0.46315000  0.99934000  0.40246000  1
  C  C55  1  0.38903000  0.99948000  0.40241000  1
  C  C56  1  0.34843000  0.99946000  0.28069000  1
  C  C57  1  0.26845000  0.99962000  0.28100000  1
  C  C58  1  0.22670000  0.99980000  0.40231000  1
  C  C59  1  0.26860000  0.99982000  0.52368000  1
  C  C60  1  0.34858000  0.99967000  0.52409000  1
  Br  Br1  1  0.09161000  0.49973000  0.19631000  1
  Br  Br2  1  0.90832000  0.50019000  0.80374000  1
  Br  Br3  1  0.58904000  0.99937000  0.70624000  1
  Br  Br4  1  0.40519000  0.99920000  0.09874000  1
  N  N1  1  0.75928000  0.76022000  0.39829000  1
  N  N2  1  0.73894000  0.73980000  0.50405000  1
  N  N3  1  0.23827000  0.23982000  0.39826000  1
  N  N4  1  0.25871000  0.26020000  0.50408000  1
  N  N5  1  0.88158000  0.88305000  0.14935000  1
  N  N6  1  0.79915000  0.80025000  0.15012000  1
  N  N7  1  0.61664000  0.61698000  0.75298000  1
  N  N8  1  0.61680000  0.61711000  0.24664000  1
  N  N9  1  0.11475000  0.11705000  0.14896000  1
  N  N10  1  0.19824000  0.19984000  0.14997000  1
  N  N11  1  0.38223000  0.38297000  0.75338000  1
  N  N12  1  0.38279000  0.38296000  0.24703000  1
  O  O1  1  0.39056000  0.50037000  0.63577000  1
  O  O2  1  0.39033000  0.50000000  0.36396000  1
  O  O3  1  0.55512000  0.55516000  0.36380000  1
  O  O4  1  0.55531000  0.55537000  0.63562000  1
  O  O5  1  0.60954000  0.49970000  0.36423000  1
  O  O6  1  0.60963000  0.49993000  0.63604000  1
  O  O7  1  0.44476000  0.44484000  0.63620000  1
  O  O8  1  0.44486000  0.44464000  0.36438000  1
  O  O9  1  0.88785000  0.99982000  0.26653000  1
  O  O10  1  0.88832000  0.00019000  0.53833000  1
  O  O11  1  0.94310000  0.94486000  0.53853000  1
  O  O12  1  0.94291000  0.94466000  0.26672000  1
  O  O13  1  0.10778000  0.00015000  0.53814000  1
  O  O14  1  0.10745000  0.99992000  0.26634000  1
  O  O15  1  0.05244000  0.05518000  0.26614000  1
  O  O16  1  0.05291000  0.05538000  0.53795000  1
  O  O17  1  0.96490000  0.91676000  0.13069000  1
  O  O18  1  0.81882000  0.86998000  0.03921000  1
  O  O19  1  0.71578000  0.76649000  0.13252000  1
  O  O20  1  0.86163000  0.81303000  0.03957000  1
  O  O21  1  0.63275000  0.58319000  0.77166000  1
  O  O22  1  0.57996000  0.63012000  0.86311000  1
  O  O23  1  0.53349000  0.58340000  0.22776000  1
  O  O24  1  0.67962000  0.63022000  0.13659000  1
  O  O25  1  0.03119000  0.08351000  0.13002000  1
  O  O26  1  0.17767000  0.12998000  0.03903000  1
  O  O27  1  0.28190000  0.23344000  0.13266000  1
  O  O28  1  0.13591000  0.18725000  0.03921000  1
  O  O29  1  0.36668000  0.41691000  0.77197000  1
  O  O30  1  0.41842000  0.36964000  0.86364000  1
  O  O31  1  0.46639000  0.41650000  0.22844000  1
  O  O32  1  0.32012000  0.37003000  0.13677000  1
