# generated using pymatgen
data_CuH23C25NO4
_symmetry_space_group_name_H-M   'P 1'
_cell_length_a   15.84940000
_cell_length_b   17.52180000
_cell_length_c   10.54320000
_cell_angle_alpha   89.92200000
_cell_angle_beta   87.67480000
_cell_angle_gamma   95.29000000
_symmetry_Int_Tables_number   1
_chemical_formula_structural   CuH23C25NO4
_chemical_formula_sum   'Cu2 H46 C50 N2 O8'
_cell_volume   2913.04276013
_cell_formula_units_Z   2
loop_
 _symmetry_equiv_pos_site_id
 _symmetry_equiv_pos_as_xyz
  1  'x, y, z'
loop_
 _atom_site_type_symbol
 _atom_site_label
 _atom_site_symmetry_multiplicity
 _atom_site_fract_x
 _atom_site_fract_y
 _atom_site_fract_z
 _atom_site_occupancy
  Cu  Cu1  1  0.41940000  0.49703000  0.50492000  1
  Cu  Cu2  1  0.58059000  0.50296000  0.49509000  1
  H  H1  1  0.29241000  0.57948000  0.36807000  1
  H  H2  1  0.13885000  0.57438000  0.37653000  1
  H  H3  1  0.87258000  0.60096000  0.33242000  1
  H  H4  1  0.86115000  0.42561000  0.62347000  1
  H  H5  1  0.99622000  0.43818000  0.60262000  1
  H  H6  1  0.00377000  0.56183000  0.39737000  1
  H  H7  1  0.62266000  0.26479000  0.49293000  1
  H  H8  1  0.61553000  0.12593000  0.49329000  1
  H  H9  1  0.65853000  0.88534000  0.49069000  1
  H  H10  1  0.38449000  0.87406000  0.50672000  1
  H  H11  1  0.40339000  0.99625000  0.50566000  1
  H  H12  1  0.59665000  0.00374000  0.49436000  1
  H  H13  1  0.60118000  0.40709000  0.20955000  1
  H  H14  1  0.60117000  0.40700000  0.77864000  1
  H  H15  1  0.41429000  0.57872000  0.90109000  1
  H  H16  1  0.41430000  0.57876000  0.10894000  1
  H  H17  1  0.27785000  0.33623000  0.66666667  1
  H  H18  1  0.35622000  0.39758000  0.67028000  1
  H  H19  1  0.28129000  0.39960000  0.77159000  1
  H  H20  1  0.12813000  0.39401000  0.78115000  1
  H  H21  1  0.05251000  0.38579000  0.68930000  1
  H  H22  1  0.12469000  0.33050000  0.67641000  1
  H  H23  1  0.70783000  0.41545000  0.74555000  1
  H  H24  1  0.63258000  0.40765000  0.65302000  1
  H  H25  1  0.70439000  0.35195000  0.64081000  1
  H  H26  1  0.71849000  0.60024000  0.22841000  1
  H  H27  1  0.64378000  0.60257000  0.33001000  1
  H  H28  1  0.72233000  0.66376000  0.33313000  1
  H  H29  1  0.29203000  0.25205000  0.58670000  1
  H  H30  1  0.33782000  0.32149000  0.50942000  1
  H  H31  1  0.29209000  0.25203000  0.43801000  1
  H  H32  1  0.28406000  0.11353000  0.43824000  1
  H  H33  1  0.32131000  0.04686000  0.51067000  1
  H  H34  1  0.28379000  0.11354000  0.58695000  1
  H  H35  1  0.31989000  0.73366000  0.43601000  1
  H  H36  1  0.35778000  0.66733000  0.50840000  1
  H  H37  1  0.31961000  0.73367000  0.58472000  1
  H  H38  1  0.70780000  0.74777000  0.56221000  1
  H  H39  1  0.66218000  0.67849000  0.49022000  1
  H  H40  1  0.70810000  0.74810000  0.41350000  1
  H  H41  1  0.76977000  0.31923000  0.10619000  1
  H  H42  1  0.70279000  0.31357000  0.22017000  1
  H  H43  1  0.69587000  0.25320000  0.11060000  1
  H  H44  1  0.69569000  0.25314000  0.86663000  1
  H  H45  1  0.70297000  0.31364000  0.75613000  1
  H  H46  1  0.76974000  0.31902000  0.86221000  1
  C  C1  1  0.49999000  0.49994000  0.73789000  1
  C  C2  1  0.50001000  0.50005000  0.26213000  1
  C  C3  1  0.50824000  0.64363000  0.49940000  1
  C  C4  1  0.49176000  0.35636000  0.50062000  1
  C  C5  1  0.25676000  0.53995000  0.43369000  1
  C  C6  1  0.16805000  0.53676000  0.43898000  1
  C  C7  1  0.11957000  0.48593000  0.52336000  1
  C  C8  1  0.16257000  0.43873000  0.60169000  1
  C  C9  1  0.25120000  0.44196000  0.59634000  1
  C  C10  1  0.02495000  0.47942000  0.53416000  1
  C  C11  1  0.97504000  0.52058000  0.46584000  1
  C  C12  1  0.83742000  0.56126000  0.39831000  1
  C  C13  1  0.88043000  0.51407000  0.47664000  1
  C  C14  1  0.83195000  0.46324000  0.56102000  1
  C  C15  1  0.74324000  0.46004000  0.56632000  1
  C  C16  1  0.74879000  0.55804000  0.40367000  1
  C  C17  1  0.48685000  0.27084000  0.50087000  1
  C  C18  1  0.56106000  0.23234000  0.49652000  1
  C  C19  1  0.55655000  0.15212000  0.49675000  1
  C  C20  1  0.47736000  0.10802000  0.50137000  1
  C  C21  1  0.40335000  0.14664000  0.50571000  1
  C  C22  1  0.40790000  0.22679000  0.50548000  1
  C  C23  1  0.46771000  0.02245000  0.50191000  1
  C  C24  1  0.53232000  0.97755000  0.49811000  1
  C  C25  1  0.59667000  0.85334000  0.49430000  1
  C  C26  1  0.52267000  0.89197000  0.49865000  1
  C  C27  1  0.44346000  0.84787000  0.50326000  1
  C  C28  1  0.43895000  0.76765000  0.50350000  1
  C  C29  1  0.51316000  0.72915000  0.49914000  1
  C  C30  1  0.59211000  0.77320000  0.49454000  1
  C  C31  1  0.50000000  0.50002000  0.12372000  1
  C  C32  1  0.55188000  0.45235000  0.05577000  1
  C  C33  1  0.44813000  0.54766000  0.06183000  1
  C  C34  1  0.60255000  0.40581000  0.12140000  1
  C  C35  1  0.65502000  0.35759000  0.05734000  1
  C  C36  1  0.50000000  0.49997000  0.87629000  1
  C  C37  1  0.44813000  0.54764000  0.94424000  1
  C  C38  1  0.55187000  0.45233000  0.93818000  1
  C  C39  1  0.60254000  0.40576000  0.86663000  1
  C  C40  1  0.65502000  0.35756000  0.92456000  1
  C  C41  1  0.29590000  0.38877000  0.68463000  1
  C  C42  1  0.11217000  0.38183000  0.69615000  1
  C  C43  1  0.69214000  0.40336000  0.66040000  1
  C  C44  1  0.70408000  0.61122000  0.31538000  1
  C  C45  1  0.32451000  0.26692000  0.51037000  1
  C  C46  1  0.31467000  0.10077000  0.51089000  1
  C  C47  1  0.35063000  0.72114000  0.50865000  1
  C  C48  1  0.67550000  0.73306000  0.48965000  1
  C  C49  1  0.71122000  0.30597000  0.13056000  1
  C  C50  1  0.71122000  0.30591000  0.84477000  1
  N  N1  1  0.29962000  0.49263000  0.51223000  1
  N  N2  1  0.70038000  0.50736000  0.48778000  1
  O  O1  1  0.42483000  0.49729000  0.66951000  1
  O  O2  1  0.42485000  0.49740000  0.33934000  1
  O  O3  1  0.43056000  0.59702000  0.50393000  1
  O  O4  1  0.41912000  0.39767000  0.50492000  1
  O  O5  1  0.56943000  0.40297000  0.49604000  1
  O  O6  1  0.58087000  0.60232000  0.49514000  1
  O  O7  1  0.57517000  0.50281000  0.33037000  1
  O  O8  1  0.57514000  0.50256000  0.66068000  1
