# generated using pymatgen
data_Cu2H9C24S2Br4NO8
_symmetry_space_group_name_H-M   'P 1'
_cell_length_a   12.50110000
_cell_length_b   34.99640000
_cell_length_c   10.00000000
_cell_angle_alpha   90.00000000
_cell_angle_beta   90.00000000
_cell_angle_gamma   90.09640000
_symmetry_Int_Tables_number   1
_chemical_formula_structural   Cu2H9C24S2Br4NO8
_chemical_formula_sum   'Cu4 H18 C48 S4 Br8 N2 O16'
_cell_volume   4374.92876812
_cell_formula_units_Z   2
loop_
 _symmetry_equiv_pos_site_id
 _symmetry_equiv_pos_as_xyz
  1  'x, y, z'
loop_
 _atom_site_type_symbol
 _atom_site_label
 _atom_site_symmetry_multiplicity
 _atom_site_fract_x
 _atom_site_fract_y
 _atom_site_fract_z
 _atom_site_occupancy
  Cu  Cu1  1  0.50000000  0.50000000  0.62726000  1
  Cu  Cu2  1  0.50001000  0.50000000  0.37274000  1
  Cu  Cu3  1  0.50042000  0.00000000  0.28188000  1
  Cu  Cu4  1  0.49988000  0.00001000  0.53639000  1
  H  H1  1  0.50004000  0.88015000  0.62461000  1
  H  H2  1  0.50004000  0.81085000  0.62594000  1
  H  H3  1  0.49993000  0.68976000  0.71585000  1
  H  H4  1  0.50039000  0.68916000  0.28324000  1
  H  H5  1  0.50038000  0.74990000  0.30204000  1
  H  H6  1  0.50005000  0.75010000  0.60716000  1
  H  H7  1  0.49972000  0.11985000  0.62458000  1
  H  H8  1  0.49971000  0.18916000  0.62591000  1
  H  H9  1  0.49958000  0.31024000  0.71584000  1
  H  H10  1  0.50018000  0.31085000  0.28322000  1
  H  H11  1  0.50016000  0.25010000  0.30202000  1
  H  H12  1  0.49974000  0.24990000  0.60714000  1
  H  H13  1  0.13307000  0.50009000  0.30519000  1
  H  H14  1  0.13279000  0.00066000  0.60608000  1
  H  H15  1  0.89332000  0.51859000  0.82427000  1
  H  H16  1  0.78593000  0.48113000  0.78172000  1
  H  H17  1  0.89416000  0.98187000  0.08620000  1
  H  H18  1  0.78668000  0.01921000  0.12837000  1
  C  C1  1  0.70063000  0.50003000  0.50001000  1
  C  C2  1  0.29938000  0.49997000  0.49999000  1
  C  C3  1  0.49987000  0.42834000  0.49999000  1
  C  C4  1  0.50015000  0.57167000  0.50000000  1
  C  C5  1  0.70078000  0.00021000  0.40980000  1
  C  C6  1  0.29953000  0.99980000  0.40847000  1
  C  C7  1  0.50003000  0.07167000  0.40912000  1
  C  C8  1  0.50028000  0.92834000  0.40915000  1
  C  C9  1  0.50028000  0.88566000  0.40916000  1
  C  C10  1  0.50014000  0.86506000  0.53008000  1
  C  C11  1  0.50014000  0.82503000  0.53024000  1
  C  C12  1  0.50027000  0.80443000  0.40893000  1
  C  C13  1  0.50040000  0.82510000  0.28832000  1
  C  C14  1  0.50040000  0.86509000  0.28824000  1
  C  C15  1  0.50027000  0.76182000  0.40144000  1
  C  C16  1  0.50016000  0.73818000  0.50777000  1
  C  C17  1  0.50003000  0.67490000  0.62087000  1
  C  C18  1  0.50016000  0.69557000  0.50026000  1
  C  C19  1  0.50029000  0.67498000  0.37894000  1
  C  C20  1  0.50029000  0.63495000  0.37910000  1
  C  C21  1  0.50015000  0.61434000  0.50001000  1
  C  C22  1  0.50002000  0.63491000  0.62094000  1
  C  C23  1  0.50002000  0.11434000  0.40913000  1
  C  C24  1  0.49985000  0.13495000  0.53004000  1
  C  C25  1  0.49985000  0.17498000  0.53022000  1
  C  C26  1  0.50002000  0.19557000  0.40890000  1
  C  C27  1  0.50019000  0.17491000  0.28829000  1
  C  C28  1  0.50019000  0.13492000  0.28821000  1
  C  C29  1  0.50002000  0.23818000  0.40142000  1
  C  C30  1  0.49987000  0.26182000  0.50774000  1
  C  C31  1  0.49971000  0.32510000  0.62085000  1
  C  C32  1  0.49988000  0.30443000  0.50024000  1
  C  C33  1  0.50005000  0.32503000  0.37892000  1
  C  C34  1  0.50004000  0.36505000  0.37909000  1
  C  C35  1  0.49987000  0.38566000  0.50000000  1
  C  C36  1  0.49971000  0.36509000  0.62092000  1
  C  C37  1  0.88935000  0.49996000  0.60607000  1
  C  C38  1  0.11066000  0.50005000  0.39392000  1
  C  C39  1  0.81999000  0.50002000  0.50000000  1
  C  C40  1  0.18002000  0.49998000  0.49999000  1
  C  C41  1  0.00000000  0.50004000  0.43165000  1
  C  C42  1  0.00001000  0.49997000  0.56834000  1
  C  C43  1  0.88973000  0.00050000  0.30437000  1
  C  C44  1  0.11057000  0.00068000  0.51727000  1
  C  C45  1  0.82014000  0.00036000  0.41021000  1
  C  C46  1  0.18016000  0.00082000  0.41143000  1
  C  C47  1  0.00000000  0.00056000  0.47917000  1
  C  C48  1  0.00030000  0.00063000  0.34247000  1
  S  S1  1  0.88440000  0.50010000  0.34692000  1
  S  S2  1  0.11561000  0.49991000  0.65307000  1
  S  S3  1  0.88421000  0.00037000  0.56350000  1
  S  S4  1  0.11609000  0.00082000  0.25814000  1
  Br  Br1  1  0.50060000  0.89398000  0.10680000  1
  Br  Br2  1  0.50059000  0.79659000  0.10614000  1
  Br  Br3  1  0.50048000  0.60601000  0.19776000  1
  Br  Br4  1  0.49983000  0.60601000  0.80237000  1
  Br  Br5  1  0.50044000  0.10602000  0.10677000  1
  Br  Br6  1  0.50044000  0.20342000  0.10611000  1
  Br  Br7  1  0.50029000  0.39400000  0.19775000  1
  Br  Br8  1  0.49945000  0.39399000  0.80236000  1
  N  N1  1  0.85299000  0.49988000  0.75007000  1
  N  N2  1  0.85367000  0.00053000  0.16026000  1
  O  O1  1  0.63909000  0.49998000  0.61869000  1
  O  O2  1  0.36063000  0.49991000  0.61867000  1
  O  O3  1  0.49970000  0.45021000  0.61868000  1
  O  O4  1  0.50002000  0.54968000  0.61868000  1
  O  O5  1  0.50027000  0.54979000  0.38132000  1
  O  O6  1  0.50003000  0.45032000  0.38132000  1
  O  O7  1  0.36081000  0.49997000  0.38131000  1
  O  O8  1  0.63938000  0.50010000  0.38133000  1
  O  O9  1  0.63949000  0.00019000  0.29091000  1
  O  O10  1  0.36103000  0.99992000  0.29000000  1
  O  O11  1  0.50011000  0.04979000  0.29044000  1
  O  O12  1  0.50041000  0.95032000  0.29047000  1
  O  O13  1  0.50015000  0.95021000  0.52783000  1
  O  O14  1  0.49993000  0.04968000  0.52780000  1
  O  O15  1  0.36070000  0.99987000  0.52735000  1
  O  O16  1  0.63927000  0.00007000  0.52827000  1
