# generated using pymatgen
data_ZnH21C20N9O5
_symmetry_space_group_name_H-M   'P 1'
_cell_length_a   16.73580000
_cell_length_b   17.72200000
_cell_length_c   10.74380000
_cell_angle_alpha   89.85080000
_cell_angle_beta   92.08590000
_cell_angle_gamma   84.91510000
_symmetry_Int_Tables_number   1
_chemical_formula_structural   ZnH21C20N9O5
_chemical_formula_sum   'Zn2 H42 C40 N18 O10'
_cell_volume   3171.82525178
_cell_formula_units_Z   2
loop_
 _symmetry_equiv_pos_site_id
 _symmetry_equiv_pos_as_xyz
  1  'x, y, z'
loop_
 _atom_site_type_symbol
 _atom_site_label
 _atom_site_symmetry_multiplicity
 _atom_site_fract_x
 _atom_site_fract_y
 _atom_site_fract_z
 _atom_site_occupancy
  Zn  Zn1  1  0.59938000  0.49641000  0.50596000  1
  Zn  Zn2  1  0.40062000  0.50361000  0.49404000  1
  H  H1  1  0.99665000  0.56098000  0.39901000  1
  H  H2  1  0.00334000  0.43903000  0.60104000  1
  H  H3  1  0.59145000  0.99657000  0.50553000  1
  H  H4  1  0.40851000  0.00344000  0.49437000  1
  H  H5  1  0.40407000  0.40777000  0.20635000  1
  H  H6  1  0.32098000  0.32829000  0.10061000  1
  H  H7  1  0.40387000  0.40803000  0.78347000  1
  H  H8  1  0.32087000  0.32843000  0.88039000  1
  H  H9  1  0.33358000  0.58633000  0.27052000  1
  H  H10  1  0.25565000  0.66894000  0.30665000  1
  H  H11  1  0.05324000  0.64943000  0.33896000  1
  H  H12  1  0.12867000  0.62112000  0.21287000  1
  H  H13  1  0.34163000  0.42553000  0.70990000  1
  H  H14  1  0.27243000  0.34819000  0.66503000  1
  H  H15  1  0.06915000  0.38085000  0.61093000  1
  H  H16  1  0.14233000  0.40490000  0.74408000  1
  H  H17  1  0.93378000  0.56655000  0.30327000  1
  H  H18  1  0.85473000  0.64772000  0.34179000  1
  H  H19  1  0.65544000  0.62710000  0.37595000  1
  H  H20  1  0.73051000  0.59921000  0.24916000  1
  H  H21  1  0.94381000  0.40318000  0.74692000  1
  H  H22  1  0.87424000  0.32628000  0.70133000  1
  H  H23  1  0.66934000  0.36108000  0.64367000  1
  H  H24  1  0.74139000  0.38368000  0.77922000  1
  H  H25  1  0.66981000  0.31293000  0.57182000  1
  H  H26  1  0.71481000  0.24223000  0.45233000  1
  H  H27  1  0.68496000  0.05122000  0.45025000  1
  H  H28  1  0.72143000  0.11932000  0.57471000  1
  H  H29  1  0.34987000  0.32451000  0.43016000  1
  H  H30  1  0.31237000  0.25629000  0.54991000  1
  H  H31  1  0.36078000  0.06421000  0.55260000  1
  H  H32  1  0.31835000  0.13644000  0.42797000  1
  H  H33  1  0.63900000  0.93557000  0.56942000  1
  H  H34  1  0.68183000  0.86382000  0.44980000  1
  H  H35  1  0.65032000  0.67576000  0.44762000  1
  H  H36  1  0.68741000  0.74351000  0.57212000  1
  H  H37  1  0.31521000  0.94902000  0.42753000  1
  H  H38  1  0.27836000  0.88045000  0.54732000  1
  H  H39  1  0.32998000  0.68684000  0.55021000  1
  H  H40  1  0.28538000  0.75801000  0.42544000  1
  H  H41  1  0.59253000  0.58875000  0.77397000  1
  H  H42  1  0.59276000  0.58846000  0.23587000  1
  C  C1  1  0.50796000  0.35236000  0.50092000  1
  C  C2  1  0.49988000  0.50004000  0.74277000  1
  C  C3  1  0.49204000  0.64766000  0.49898000  1
  C  C4  1  0.50013000  0.49972000  0.25724000  1
  C  C5  1  0.24294000  0.46109000  0.56449000  1
  C  C6  1  0.15897000  0.46407000  0.55956000  1
  C  C7  1  0.11326000  0.51411000  0.47664000  1
  C  C8  1  0.15415000  0.56074000  0.39940000  1
  C  C9  1  0.23805000  0.55774000  0.40438000  1
  C  C10  1  0.02370000  0.52035000  0.46632000  1
  C  C11  1  0.97629000  0.47965000  0.53373000  1
  C  C12  1  0.84584000  0.43927000  0.60064000  1
  C  C13  1  0.88674000  0.48589000  0.52340000  1
  C  C14  1  0.84103000  0.53594000  0.44048000  1
  C  C15  1  0.75706000  0.53892000  0.43554000  1
  C  C16  1  0.76194000  0.44228000  0.59565000  1
  C  C17  1  0.51257000  0.26782000  0.50108000  1
  C  C18  1  0.44230000  0.22955000  0.49674000  1
  C  C19  1  0.44653000  0.15026000  0.49689000  1
  C  C20  1  0.52148000  0.10688000  0.50141000  1
  C  C21  1  0.59156000  0.14527000  0.50574000  1
  C  C22  1  0.58728000  0.22449000  0.50559000  1
  C  C23  1  0.53058000  0.02230000  0.50185000  1
  C  C24  1  0.46939000  0.97772000  0.49805000  1
  C  C25  1  0.40843000  0.85475000  0.49416000  1
  C  C26  1  0.47849000  0.89314000  0.49849000  1
  C  C27  1  0.55345000  0.84977000  0.50301000  1
  C  C28  1  0.55768000  0.77047000  0.50316000  1
  C  C29  1  0.48743000  0.73220000  0.49882000  1
  C  C30  1  0.41271000  0.77552000  0.49431000  1
  C  C31  1  0.50006000  0.49980000  0.12141000  1
  C  C32  1  0.45080000  0.45269000  0.05509000  1
  C  C33  1  0.54927000  0.54700000  0.06032000  1
  C  C34  1  0.40273000  0.40658000  0.11985000  1
  C  C35  1  0.35290000  0.35891000  0.05734000  1
  C  C36  1  0.49995000  0.49996000  0.87860000  1
  C  C37  1  0.54921000  0.54707000  0.94492000  1
  C  C38  1  0.45074000  0.45276000  0.93969000  1
  C  C39  1  0.40261000  0.40674000  0.86982000  1
  C  C40  1  0.35283000  0.35899000  0.92704000  1
  N  N1  1  0.28370000  0.50785000  0.48703000  1
  N  N2  1  0.71630000  0.49217000  0.51299000  1
  N  N3  1  0.27941000  0.60885000  0.31970000  1
  N  N4  1  0.10794000  0.61525000  0.30911000  1
  N  N5  1  0.28981000  0.40681000  0.65441000  1
  N  N6  1  0.12004000  0.41201000  0.64580000  1
  N  N7  1  0.87995000  0.58800000  0.35423000  1
  N  N8  1  0.71020000  0.59320000  0.34561000  1
  N  N9  1  0.89204000  0.38476000  0.69094000  1
  N  N10  1  0.72057000  0.39117000  0.68032000  1
  N  N11  1  0.66408000  0.26331000  0.51033000  1
  N  N12  1  0.67319000  0.10139000  0.51067000  1
  N  N13  1  0.36101000  0.27404000  0.49183000  1
  N  N14  1  0.36832000  0.11375000  0.49206000  1
  N  N15  1  0.63167000  0.88627000  0.50784000  1
  N  N16  1  0.63898000  0.72599000  0.50807000  1
  N  N17  1  0.32679000  0.89861000  0.48923000  1
  N  N18  1  0.33591000  0.73670000  0.48957000  1
  O  O1  1  0.58733000  0.38787000  0.50615000  1
  O  O2  1  0.42438000  0.39379000  0.49574000  1
  O  O3  1  0.41837000  0.50298000  0.67456000  1
  O  O4  1  0.58133000  0.49718000  0.68443000  1
  O  O5  1  0.41266000  0.61215000  0.49409000  1
  O  O6  1  0.57562000  0.60623000  0.50403000  1
  O  O7  1  0.58163000  0.49688000  0.32544000  1
  O  O8  1  0.41866000  0.50297000  0.31558000  1
  O  O9  1  0.60135000  0.59709000  0.87574000  1
  O  O10  1  0.60147000  0.59692000  0.13503000  1
