# generated using pymatgen
data_LiCuH9C12SN4O5
_symmetry_space_group_name_H-M   'P 1'
_cell_length_a   12.50110000
_cell_length_b   34.99640000
_cell_length_c   10.00000000
_cell_angle_alpha   90.00000000
_cell_angle_beta   90.00000000
_cell_angle_gamma   90.09640000
_symmetry_Int_Tables_number   1
_chemical_formula_structural   LiCuH9C12SN4O5
_chemical_formula_sum   'Li4 Cu4 H36 C48 S4 N16 O20'
_cell_volume   4374.92876812
_cell_formula_units_Z   4
loop_
 _symmetry_equiv_pos_site_id
 _symmetry_equiv_pos_as_xyz
  1  'x, y, z'
loop_
 _atom_site_type_symbol
 _atom_site_label
 _atom_site_symmetry_multiplicity
 _atom_site_fract_x
 _atom_site_fract_y
 _atom_site_fract_z
 _atom_site_occupancy
  Li  Li1  1  0.92545000  0.49981000  0.87880000  1
  Li  Li2  1  0.07456000  0.50020000  0.12120000  1
  Li  Li3  1  0.92641000  0.00069000  0.03177000  1
  Li  Li4  1  0.07389000  0.00049000  0.78987000  1
  Cu  Cu1  1  0.50000000  0.50000000  0.62726000  1
  Cu  Cu2  1  0.50001000  0.50000000  0.37274000  1
  Cu  Cu3  1  0.50042000  0.00000000  0.28188000  1
  Cu  Cu4  1  0.49988000  0.00001000  0.53639000  1
  H  H1  1  0.50038000  0.74990000  0.30204000  1
  H  H2  1  0.50005000  0.75010000  0.60716000  1
  H  H3  1  0.50016000  0.25010000  0.30202000  1
  H  H4  1  0.49974000  0.24990000  0.60714000  1
  H  H5  1  0.55305000  0.91138000  0.14215000  1
  H  H6  1  0.44815000  0.87625000  0.07357000  1
  H  H7  1  0.44807000  0.77912000  0.14087000  1
  H  H8  1  0.55312000  0.81439000  0.07354000  1
  H  H9  1  0.44751000  0.91133000  0.67599000  1
  H  H10  1  0.55240000  0.87634000  0.74470000  1
  H  H11  1  0.55246000  0.78007000  0.68131000  1
  H  H12  1  0.44742000  0.81566000  0.74581000  1
  H  H13  1  0.55294000  0.71999000  0.22805000  1
  H  H14  1  0.44804000  0.68429000  0.16319000  1
  H  H15  1  0.44795000  0.58862000  0.23300000  1
  H  H16  1  0.55300000  0.62373000  0.16465000  1
  H  H17  1  0.44739000  0.72082000  0.76816000  1
  H  H18  1  0.55228000  0.68567000  0.83582000  1
  H  H19  1  0.55235000  0.58868000  0.76719000  1
  H  H20  1  0.44731000  0.62369000  0.83543000  1
  H  H21  1  0.44791000  0.08862000  0.14191000  1
  H  H22  1  0.55297000  0.12376000  0.07374000  1
  H  H23  1  0.55287000  0.22089000  0.14105000  1
  H  H24  1  0.44800000  0.18561000  0.07331000  1
  H  H25  1  0.55214000  0.08867000  0.67615000  1
  H  H26  1  0.44707000  0.12366000  0.74447000  1
  H  H27  1  0.44715000  0.21993000  0.68108000  1
  H  H28  1  0.55203000  0.18435000  0.74599000  1
  H  H29  1  0.44778000  0.28001000  0.22782000  1
  H  H30  1  0.55283000  0.31572000  0.16338000  1
  H  H31  1  0.55272000  0.41139000  0.23319000  1
  H  H32  1  0.44785000  0.37627000  0.16443000  1
  H  H33  1  0.55199000  0.27918000  0.76834000  1
  H  H34  1  0.44693000  0.31433000  0.83560000  1
  H  H35  1  0.44701000  0.41132000  0.76698000  1
  H  H36  1  0.55189000  0.37632000  0.83562000  1
  C  C1  1  0.70063000  0.50003000  0.50001000  1
  C  C2  1  0.29938000  0.49997000  0.49999000  1
  C  C3  1  0.49987000  0.42834000  0.49999000  1
  C  C4  1  0.50015000  0.57167000  0.50000000  1
  C  C5  1  0.70078000  0.00021000  0.40980000  1
  C  C6  1  0.29953000  0.99980000  0.40847000  1
  C  C7  1  0.50003000  0.07167000  0.40912000  1
  C  C8  1  0.50028000  0.92834000  0.40915000  1
  C  C9  1  0.50028000  0.88566000  0.40916000  1
  C  C10  1  0.50014000  0.86506000  0.53008000  1
  C  C11  1  0.50014000  0.82503000  0.53024000  1
  C  C12  1  0.50027000  0.80443000  0.40893000  1
  C  C13  1  0.50040000  0.82510000  0.28832000  1
  C  C14  1  0.50040000  0.86509000  0.28824000  1
  C  C15  1  0.50027000  0.76182000  0.40144000  1
  C  C16  1  0.50016000  0.73818000  0.50777000  1
  C  C17  1  0.50003000  0.67490000  0.62087000  1
  C  C18  1  0.50016000  0.69557000  0.50026000  1
  C  C19  1  0.50029000  0.67498000  0.37894000  1
  C  C20  1  0.50029000  0.63495000  0.37910000  1
  C  C21  1  0.50015000  0.61434000  0.50001000  1
  C  C22  1  0.50002000  0.63491000  0.62094000  1
  C  C23  1  0.50002000  0.11434000  0.40913000  1
  C  C24  1  0.49985000  0.13495000  0.53004000  1
  C  C25  1  0.49985000  0.17498000  0.53022000  1
  C  C26  1  0.50002000  0.19557000  0.40890000  1
  C  C27  1  0.50019000  0.17491000  0.28829000  1
  C  C28  1  0.50019000  0.13492000  0.28821000  1
  C  C29  1  0.50002000  0.23818000  0.40142000  1
  C  C30  1  0.49987000  0.26182000  0.50774000  1
  C  C31  1  0.49971000  0.32510000  0.62085000  1
  C  C32  1  0.49988000  0.30443000  0.50024000  1
  C  C33  1  0.50005000  0.32503000  0.37892000  1
  C  C34  1  0.50004000  0.36505000  0.37909000  1
  C  C35  1  0.49987000  0.38566000  0.50000000  1
  C  C36  1  0.49971000  0.36509000  0.62092000  1
  C  C37  1  0.88935000  0.49996000  0.60607000  1
  C  C38  1  0.11066000  0.50005000  0.39392000  1
  C  C39  1  0.81999000  0.50002000  0.50000000  1
  C  C40  1  0.18002000  0.49998000  0.49999000  1
  C  C41  1  0.00000000  0.50004000  0.43165000  1
  C  C42  1  0.00001000  0.49997000  0.56834000  1
  C  C43  1  0.88973000  0.00050000  0.30437000  1
  C  C44  1  0.11057000  0.00068000  0.51727000  1
  C  C45  1  0.82014000  0.00036000  0.41021000  1
  C  C46  1  0.18016000  0.00082000  0.41143000  1
  C  C47  1  0.00000000  0.00056000  0.47917000  1
  C  C48  1  0.00030000  0.00063000  0.34247000  1
  S  S1  1  0.88440000  0.50010000  0.34692000  1
  S  S2  1  0.11561000  0.49991000  0.65307000  1
  S  S3  1  0.88421000  0.00037000  0.56350000  1
  S  S4  1  0.11609000  0.00082000  0.25814000  1
  N  N1  1  0.50055000  0.88610000  0.15634000  1
  N  N2  1  0.50054000  0.80437000  0.15588000  1
  N  N3  1  0.50000000  0.88610000  0.66189000  1
  N  N4  1  0.49999000  0.80517000  0.66429000  1
  N  N5  1  0.50044000  0.69484000  0.24489000  1
  N  N6  1  0.50043000  0.61391000  0.24727000  1
  N  N7  1  0.49989000  0.69563000  0.75331000  1
  N  N8  1  0.49988000  0.61390000  0.75283000  1
  N  N9  1  0.50037000  0.11391000  0.15631000  1
  N  N10  1  0.50037000  0.19563000  0.15586000  1
  N  N11  1  0.49967000  0.11390000  0.66186000  1
  N  N12  1  0.49966000  0.19484000  0.66426000  1
  N  N13  1  0.50023000  0.30517000  0.24487000  1
  N  N14  1  0.50022000  0.38610000  0.24726000  1
  N  N15  1  0.49953000  0.30438000  0.75329000  1
  N  N16  1  0.49952000  0.38610000  0.75282000  1
  O  O1  1  0.63909000  0.49998000  0.61869000  1
  O  O2  1  0.36063000  0.49991000  0.61867000  1
  O  O3  1  0.49970000  0.45021000  0.61868000  1
  O  O4  1  0.50002000  0.54968000  0.61868000  1
  O  O5  1  0.50027000  0.54979000  0.38132000  1
  O  O6  1  0.50003000  0.45032000  0.38132000  1
  O  O7  1  0.36081000  0.49997000  0.38131000  1
  O  O8  1  0.63938000  0.50010000  0.38133000  1
  O  O9  1  0.63949000  0.00019000  0.29091000  1
  O  O10  1  0.36103000  0.99992000  0.29000000  1
  O  O11  1  0.50011000  0.04979000  0.29044000  1
  O  O12  1  0.50041000  0.95032000  0.29047000  1
  O  O13  1  0.50015000  0.95021000  0.52783000  1
  O  O14  1  0.49993000  0.04968000  0.52780000  1
  O  O15  1  0.36070000  0.99987000  0.52735000  1
  O  O16  1  0.63927000  0.00007000  0.52827000  1
  O  O17  1  0.85809000  0.49989000  0.72985000  1
  O  O18  1  0.14192000  0.50011000  0.27014000  1
  O  O19  1  0.85873000  0.00053000  0.18049000  1
  O  O20  1  0.14157000  0.00066000  0.64115000  1
