# generated using pymatgen
data_AlPO4
_symmetry_space_group_name_H-M   'P 1'
_cell_length_a   13.84250000
_cell_length_b   13.84250000
_cell_length_c   20.20420000
_cell_angle_alpha   90.00000000
_cell_angle_beta   90.00000000
_cell_angle_gamma   120.00000000
_symmetry_Int_Tables_number   1
_chemical_formula_structural   AlPO4
_chemical_formula_sum   'Al24 P24 O96'
_cell_volume   3352.75141888
_cell_formula_units_Z   24
loop_
 _symmetry_equiv_pos_site_id
 _symmetry_equiv_pos_as_xyz
  1  'x, y, z'
loop_
 _atom_site_type_symbol
 _atom_site_label
 _atom_site_symmetry_multiplicity
 _atom_site_fract_x
 _atom_site_fract_y
 _atom_site_fract_z
 _atom_site_occupancy
  Al  Al1  1  0.89367000  0.33146000  0.82478000  1
  Al  Al2  1  0.99468000  0.22580000  0.57371000  1
  Al  Al3  1  0.66854000  0.56221000  0.82478000  1
  Al  Al4  1  0.77420000  0.76888000  0.57371000  1
  Al  Al5  1  0.43779000  0.10633000  0.82478000  1
  Al  Al6  1  0.23112000  0.00532000  0.57371000  1
  Al  Al7  1  0.66854000  0.10633000  0.67522000  1
  Al  Al8  1  0.77420000  0.00532000  0.92629000  1
  Al  Al9  1  0.43779000  0.33146000  0.67522000  1
  Al  Al10  1  0.23112000  0.22580000  0.92629000  1
  Al  Al11  1  0.89367000  0.56221000  0.67522000  1
  Al  Al12  1  0.99468000  0.76888000  0.92629000  1
  Al  Al13  1  0.10633000  0.66854000  0.17522000  1
  Al  Al14  1  0.00532000  0.77420000  0.42629000  1
  Al  Al15  1  0.33146000  0.43779000  0.17522000  1
  Al  Al16  1  0.22580000  0.23112000  0.42629000  1
  Al  Al17  1  0.56221000  0.89367000  0.17522000  1
  Al  Al18  1  0.76888000  0.99468000  0.42629000  1
  Al  Al19  1  0.33146000  0.89367000  0.32478000  1
  Al  Al20  1  0.22580000  0.99468000  0.07371000  1
  Al  Al21  1  0.56221000  0.66854000  0.32478000  1
  Al  Al22  1  0.76888000  0.77420000  0.07371000  1
  Al  Al23  1  0.10633000  0.43779000  0.32478000  1
  Al  Al24  1  0.00532000  0.23112000  0.07371000  1
  P  P1  1  0.89452000  0.33349000  0.66873000  1
  P  P2  1  0.76950000  0.99571000  0.58162000  1
  P  P3  1  0.66651000  0.56103000  0.66873000  1
  P  P4  1  0.00429000  0.77379000  0.58162000  1
  P  P5  1  0.43897000  0.10548000  0.66873000  1
  P  P6  1  0.22621000  0.23050000  0.58162000  1
  P  P7  1  0.66651000  0.10548000  0.83127000  1
  P  P8  1  0.00429000  0.23050000  0.91838000  1
  P  P9  1  0.43897000  0.33349000  0.83127000  1
  P  P10  1  0.22621000  0.99571000  0.91838000  1
  P  P11  1  0.89452000  0.56103000  0.83127000  1
  P  P12  1  0.76950000  0.77379000  0.91838000  1
  P  P13  1  0.10548000  0.66651000  0.33127000  1
  P  P14  1  0.23050000  0.00429000  0.41838000  1
  P  P15  1  0.33349000  0.43897000  0.33127000  1
  P  P16  1  0.99571000  0.22621000  0.41838000  1
  P  P17  1  0.56103000  0.89452000  0.33127000  1
  P  P18  1  0.77379000  0.76950000  0.41838000  1
  P  P19  1  0.33349000  0.89452000  0.16873000  1
  P  P20  1  0.99571000  0.76950000  0.08162000  1
  P  P21  1  0.56103000  0.66651000  0.16873000  1
  P  P22  1  0.77379000  0.00429000  0.08162000  1
  P  P23  1  0.10548000  0.43897000  0.16873000  1
  P  P24  1  0.23050000  0.22621000  0.08162000  1
  O  O1  1  0.92610000  0.32700000  0.73920000  1
  O  O2  1  0.75550000  0.22530000  0.84490000  1
  O  O3  1  0.88980000  0.08780000  0.59030000  1
  O  O4  1  0.97120000  0.31670000  0.62330000  1
  O  O5  1  0.90830000  0.46170000  0.84500000  1
  O  O6  1  0.12470000  0.24050000  0.59860000  1
  O  O7  1  0.99630000  0.26400000  0.48890000  1
  O  O8  1  0.98650000  0.30640000  0.87190000  1
  O  O9  1  0.67300000  0.59910000  0.73920000  1
  O  O10  1  0.77470000  0.53020000  0.84490000  1
  O  O11  1  0.91220000  0.80200000  0.59030000  1
  O  O12  1  0.68330000  0.65450000  0.62330000  1
  O  O13  1  0.53830000  0.44660000  0.84500000  1
  O  O14  1  0.75950000  0.88420000  0.59860000  1
  O  O15  1  0.73600000  0.73230000  0.48890000  1
  O  O16  1  0.69360000  0.68010000  0.87190000  1
  O  O17  1  0.40090000  0.07390000  0.73920000  1
  O  O18  1  0.46980000  0.24450000  0.84490000  1
  O  O19  1  0.19800000  0.11020000  0.59030000  1
  O  O20  1  0.34550000  0.02880000  0.62330000  1
  O  O21  1  0.55340000  0.09170000  0.84500000  1
  O  O22  1  0.11580000  0.87530000  0.59860000  1
  O  O23  1  0.26770000  0.00370000  0.48890000  1
  O  O24  1  0.31990000  0.01350000  0.87190000  1
  O  O25  1  0.67300000  0.07390000  0.76080000  1
  O  O26  1  0.77470000  0.24450000  0.65510000  1
  O  O27  1  0.91220000  0.11020000  0.90970000  1
  O  O28  1  0.68330000  0.02880000  0.87670000  1
  O  O29  1  0.53830000  0.09170000  0.65500000  1
  O  O30  1  0.75950000  0.87530000  0.90140000  1
  O  O31  1  0.73600000  0.00370000  0.01110000  1
  O  O32  1  0.69360000  0.01350000  0.62810000  1
  O  O33  1  0.40090000  0.32700000  0.76080000  1
  O  O34  1  0.46980000  0.22530000  0.65510000  1
  O  O35  1  0.19800000  0.08780000  0.90970000  1
  O  O36  1  0.34550000  0.31670000  0.87670000  1
  O  O37  1  0.55340000  0.46170000  0.65500000  1
  O  O38  1  0.11580000  0.24050000  0.90140000  1
  O  O39  1  0.26770000  0.26400000  0.01110000  1
  O  O40  1  0.31990000  0.30640000  0.62810000  1
  O  O41  1  0.92610000  0.59910000  0.76080000  1
  O  O42  1  0.75550000  0.53020000  0.65510000  1
  O  O43  1  0.88980000  0.80200000  0.90970000  1
  O  O44  1  0.97120000  0.65450000  0.87670000  1
  O  O45  1  0.90830000  0.44660000  0.65500000  1
  O  O46  1  0.12470000  0.88420000  0.90140000  1
  O  O47  1  0.99630000  0.73230000  0.01110000  1
  O  O48  1  0.98650000  0.68010000  0.62810000  1
  O  O49  1  0.07390000  0.67300000  0.26080000  1
  O  O50  1  0.24450000  0.77470000  0.15510000  1
  O  O51  1  0.11020000  0.91220000  0.40970000  1
  O  O52  1  0.02880000  0.68330000  0.37670000  1
  O  O53  1  0.09170000  0.53830000  0.15500000  1
  O  O54  1  0.87530000  0.75950000  0.40140000  1
  O  O55  1  0.00370000  0.73600000  0.51110000  1
  O  O56  1  0.01350000  0.69360000  0.12810000  1
  O  O57  1  0.32700000  0.40090000  0.26080000  1
  O  O58  1  0.22530000  0.46980000  0.15510000  1
  O  O59  1  0.08780000  0.19800000  0.40970000  1
  O  O60  1  0.31670000  0.34550000  0.37670000  1
  O  O61  1  0.46170000  0.55340000  0.15500000  1
  O  O62  1  0.24050000  0.11580000  0.40140000  1
  O  O63  1  0.26400000  0.26770000  0.51110000  1
  O  O64  1  0.30640000  0.31990000  0.12810000  1
  O  O65  1  0.59910000  0.92610000  0.26080000  1
  O  O66  1  0.53020000  0.75550000  0.15510000  1
  O  O67  1  0.80200000  0.88980000  0.40970000  1
  O  O68  1  0.65450000  0.97120000  0.37670000  1
  O  O69  1  0.44660000  0.90830000  0.15500000  1
  O  O70  1  0.88420000  0.12470000  0.40140000  1
  O  O71  1  0.73230000  0.99630000  0.51110000  1
  O  O72  1  0.68010000  0.98650000  0.12810000  1
  O  O73  1  0.32700000  0.92610000  0.23920000  1
  O  O74  1  0.22530000  0.75550000  0.34490000  1
  O  O75  1  0.08780000  0.88980000  0.09030000  1
  O  O76  1  0.31670000  0.97120000  0.12330000  1
  O  O77  1  0.46170000  0.90830000  0.34500000  1
  O  O78  1  0.24050000  0.12470000  0.09860000  1
  O  O79  1  0.26400000  0.99630000  0.98890000  1
  O  O80  1  0.30640000  0.98650000  0.37190000  1
  O  O81  1  0.59910000  0.67300000  0.23920000  1
  O  O82  1  0.53020000  0.77470000  0.34490000  1
  O  O83  1  0.80200000  0.91220000  0.09030000  1
  O  O84  1  0.65450000  0.68330000  0.12330000  1
  O  O85  1  0.44660000  0.53830000  0.34500000  1
  O  O86  1  0.88420000  0.75950000  0.09860000  1
  O  O87  1  0.73230000  0.73600000  0.98890000  1
  O  O88  1  0.68010000  0.69360000  0.37190000  1
  O  O89  1  0.07390000  0.40090000  0.23920000  1
  O  O90  1  0.24450000  0.46980000  0.34490000  1
  O  O91  1  0.11020000  0.19800000  0.09030000  1
  O  O92  1  0.02880000  0.34550000  0.12330000  1
  O  O93  1  0.09170000  0.55340000  0.34500000  1
  O  O94  1  0.87530000  0.11580000  0.09860000  1
  O  O95  1  0.00370000  0.26770000  0.98890000  1
  O  O96  1  0.01350000  0.31990000  0.37190000  1
