# generated using pymatgen
data_CuH13C12(NO2)2
_symmetry_space_group_name_H-M   'P 1'
_cell_length_a   29.13500000
_cell_length_b   13.19100000
_cell_length_c   8.59900000
_cell_angle_alpha   90.00000000
_cell_angle_beta   90.24700000
_cell_angle_gamma   90.00000000
_symmetry_Int_Tables_number   1
_chemical_formula_structural   CuH13C12(NO2)2
_chemical_formula_sum   'Cu8 H104 C96 N16 O32'
_cell_volume   3304.73512271
_cell_formula_units_Z   8
loop_
 _symmetry_equiv_pos_site_id
 _symmetry_equiv_pos_as_xyz
  1  'x, y, z'
loop_
 _atom_site_type_symbol
 _atom_site_label
 _atom_site_symmetry_multiplicity
 _atom_site_fract_x
 _atom_site_fract_y
 _atom_site_fract_z
 _atom_site_occupancy
  Cu  Cu1  1  0.28745000  0.79518000  0.55066000  1
  Cu  Cu2  1  0.78745000  0.29518000  0.55066000  1
  Cu  Cu3  1  0.71255000  0.79518000  0.94934000  1
  Cu  Cu4  1  0.21255000  0.29518000  0.94934000  1
  Cu  Cu5  1  0.71255000  0.20482000  0.44934000  1
  Cu  Cu6  1  0.21255000  0.70482000  0.44934000  1
  Cu  Cu7  1  0.28745000  0.20482000  0.05066000  1
  Cu  Cu8  1  0.78745000  0.70482000  0.05066000  1
  H  H1  1  0.37610000  0.75490000  0.73730000  1
  H  H2  1  0.19030000  0.90190000  0.08250000  1
  H  H3  1  0.65550000  0.70710000  0.40030000  1
  H  H4  1  0.69030000  0.59810000  0.58250000  1
  H  H5  1  0.73800000  0.61350000  0.50220000  1
  H  H6  1  0.66220000  0.51440000  0.36550000  1
  H  H7  1  0.70750000  0.53670000  0.27440000  1
  H  H8  1  0.23800000  0.88650000  0.00220000  1
  H  H9  1  0.16220000  0.98560000  0.86550000  1
  H  H10  1  0.20750000  0.96330000  0.77440000  1
  H  H11  1  0.87610000  0.25490000  0.73730000  1
  H  H12  1  0.93380000  0.33400000  0.86700000  1
  H  H13  1  0.87780000  0.59750000  0.74930000  1
  H  H14  1  0.82130000  0.51020000  0.62210000  1
  H  H15  1  0.97870000  0.66730000  0.95150000  1
  H  H16  1  0.92490000  0.66760000  0.94630000  1
  H  H17  1  0.43380000  0.83400000  0.86700000  1
  H  H18  1  0.95290000  0.66550000  0.79110000  1
  H  H19  1  0.69510000  0.23580000  0.98820000  1
  H  H20  1  0.65550000  0.29290000  0.90030000  1
  H  H21  1  0.69030000  0.40190000  0.08250000  1
  H  H22  1  0.73800000  0.38650000  0.00220000  1
  H  H23  1  0.66220000  0.48560000  0.86550000  1
  H  H24  1  0.70750000  0.46330000  0.77440000  1
  H  H25  1  0.62390000  0.75490000  0.76270000  1
  H  H26  1  0.56620000  0.83400000  0.63300000  1
  H  H27  1  0.62220000  0.09750000  0.75070000  1
  H  H28  1  0.37780000  0.09750000  0.74930000  1
  H  H29  1  0.67870000  0.01020000  0.87790000  1
  H  H30  1  0.52130000  0.16730000  0.54850000  1
  H  H31  1  0.57510000  0.16760000  0.55370000  1
  H  H32  1  0.54710000  0.16550000  0.70890000  1
  H  H33  1  0.80490000  0.73580000  0.51180000  1
  H  H34  1  0.84450000  0.79290000  0.59970000  1
  H  H35  1  0.80970000  0.90190000  0.41750000  1
  H  H36  1  0.76200000  0.88650000  0.49780000  1
  H  H37  1  0.83780000  0.98560000  0.63450000  1
  H  H38  1  0.79250000  0.96330000  0.72560000  1
  H  H39  1  0.32130000  0.01020000  0.62210000  1
  H  H40  1  0.12390000  0.25490000  0.76270000  1
  H  H41  1  0.06620000  0.33400000  0.63300000  1
  H  H42  1  0.12220000  0.59750000  0.75070000  1
  H  H43  1  0.17870000  0.51020000  0.87790000  1
  H  H44  1  0.02130000  0.66730000  0.54850000  1
  H  H45  1  0.07510000  0.66760000  0.55370000  1
  H  H46  1  0.04710000  0.66550000  0.70890000  1
  H  H47  1  0.30490000  0.23580000  0.51180000  1
  H  H48  1  0.34450000  0.29290000  0.59970000  1
  H  H49  1  0.30970000  0.40190000  0.41750000  1
  H  H50  1  0.47870000  0.16730000  0.95150000  1
  H  H51  1  0.26200000  0.38650000  0.49780000  1
  H  H52  1  0.33780000  0.48560000  0.63450000  1
  H  H53  1  0.29250000  0.46330000  0.72560000  1
  H  H54  1  0.62390000  0.24510000  0.26270000  1
  H  H55  1  0.56620000  0.16600000  0.13300000  1
  H  H56  1  0.62220000  0.90250000  0.25070000  1
  H  H57  1  0.67870000  0.98980000  0.37790000  1
  H  H58  1  0.52130000  0.83270000  0.04850000  1
  H  H59  1  0.57510000  0.83240000  0.05370000  1
  H  H60  1  0.54710000  0.83450000  0.20890000  1
  H  H61  1  0.42490000  0.16760000  0.94630000  1
  H  H62  1  0.80490000  0.26420000  0.01180000  1
  H  H63  1  0.84450000  0.20710000  0.09970000  1
  H  H64  1  0.80970000  0.09810000  0.91750000  1
  H  H65  1  0.76200000  0.11350000  0.99780000  1
  H  H66  1  0.83780000  0.01440000  0.13450000  1
  H  H67  1  0.79250000  0.03670000  0.22560000  1
  H  H68  1  0.12390000  0.74510000  0.26270000  1
  H  H69  1  0.06620000  0.66600000  0.13300000  1
  H  H70  1  0.12220000  0.40250000  0.25070000  1
  H  H71  1  0.17870000  0.48980000  0.37790000  1
  H  H72  1  0.45290000  0.16550000  0.79110000  1
  H  H73  1  0.02130000  0.33270000  0.04850000  1
  H  H74  1  0.07510000  0.33240000  0.05370000  1
  H  H75  1  0.04710000  0.33450000  0.20890000  1
  H  H76  1  0.30490000  0.76420000  0.01180000  1
  H  H77  1  0.34450000  0.70710000  0.09970000  1
  H  H78  1  0.30970000  0.59810000  0.91750000  1
  H  H79  1  0.26200000  0.61350000  0.99780000  1
  H  H80  1  0.33780000  0.51440000  0.13450000  1
  H  H81  1  0.29250000  0.53670000  0.22560000  1
  H  H82  1  0.37610000  0.24510000  0.23730000  1
  H  H83  1  0.19510000  0.73580000  0.98820000  1
  H  H84  1  0.43380000  0.16600000  0.36700000  1
  H  H85  1  0.37780000  0.90250000  0.24930000  1
  H  H86  1  0.32130000  0.98980000  0.12210000  1
  H  H87  1  0.47870000  0.83270000  0.45150000  1
  H  H88  1  0.42490000  0.83240000  0.44630000  1
  H  H89  1  0.45290000  0.83450000  0.29110000  1
  H  H90  1  0.19510000  0.26420000  0.48820000  1
  H  H91  1  0.15550000  0.20710000  0.40030000  1
  H  H92  1  0.19030000  0.09810000  0.58250000  1
  H  H93  1  0.23800000  0.11350000  0.50220000  1
  H  H94  1  0.15550000  0.79290000  0.90030000  1
  H  H95  1  0.16220000  0.01440000  0.36550000  1
  H  H96  1  0.20750000  0.03670000  0.27440000  1
  H  H97  1  0.87610000  0.74510000  0.23730000  1
  H  H98  1  0.93380000  0.66600000  0.36700000  1
  H  H99  1  0.87780000  0.40250000  0.24930000  1
  H  H100  1  0.82130000  0.48980000  0.12210000  1
  H  H101  1  0.97870000  0.33270000  0.45150000  1
  H  H102  1  0.92490000  0.33240000  0.44630000  1
  H  H103  1  0.95290000  0.33450000  0.29110000  1
  H  H104  1  0.69510000  0.76420000  0.48820000  1
  C  C1  1  0.37646000  0.82540000  0.73880000  1
  C  C2  1  0.20519000  0.89050000  0.98340000  1
  C  C3  1  0.19527000  0.97900000  0.87640000  1
  C  C4  1  0.21454000  0.08080000  0.92750000  1
  C  C5  1  0.87646000  0.32540000  0.73880000  1
  C  C6  1  0.91149000  0.37250000  0.81670000  1
  C  C7  1  0.91390000  0.47580000  0.82110000  1
  C  C8  1  0.87858000  0.52710000  0.74750000  1
  C  C9  1  0.84447000  0.47380000  0.67160000  1
  C  C10  1  0.95202000  0.53040000  0.90010000  1
  C  C11  1  0.95216000  0.64250000  0.89690000  1
  C  C12  1  0.41149000  0.87250000  0.81670000  1
  C  C13  1  0.71112000  0.26660000  0.76200000  1
  C  C14  1  0.68851000  0.29000000  0.91520000  1
  C  C15  1  0.70519000  0.39050000  0.98340000  1
  C  C16  1  0.69527000  0.47900000  0.87640000  1
  C  C17  1  0.71454000  0.58080000  0.92750000  1
  C  C18  1  0.62354000  0.82540000  0.76120000  1
  C  C19  1  0.58851000  0.87250000  0.68330000  1
  C  C20  1  0.58610000  0.97580000  0.67890000  1
  C  C21  1  0.62142000  0.02710000  0.75250000  1
  C  C22  1  0.65553000  0.97380000  0.82840000  1
  C  C23  1  0.41390000  0.97580000  0.82110000  1
  C  C24  1  0.54798000  0.03040000  0.59990000  1
  C  C25  1  0.54784000  0.14250000  0.60310000  1
  C  C26  1  0.78888000  0.76660000  0.73800000  1
  C  C27  1  0.81149000  0.79000000  0.58480000  1
  C  C28  1  0.79481000  0.89050000  0.51660000  1
  C  C29  1  0.80473000  0.97900000  0.62360000  1
  C  C30  1  0.78546000  0.08080000  0.57250000  1
  C  C31  1  0.12354000  0.32540000  0.76120000  1
  C  C32  1  0.08851000  0.37250000  0.68330000  1
  C  C33  1  0.08610000  0.47580000  0.67890000  1
  C  C34  1  0.37858000  0.02710000  0.74750000  1
  C  C35  1  0.12142000  0.52710000  0.75250000  1
  C  C36  1  0.15553000  0.47380000  0.82840000  1
  C  C37  1  0.04798000  0.53040000  0.59990000  1
  C  C38  1  0.04784000  0.64250000  0.60310000  1
  C  C39  1  0.28888000  0.26660000  0.73800000  1
  C  C40  1  0.31149000  0.29000000  0.58480000  1
  C  C41  1  0.29481000  0.39050000  0.51660000  1
  C  C42  1  0.30473000  0.47900000  0.62360000  1
  C  C43  1  0.28546000  0.58080000  0.57250000  1
  C  C44  1  0.62354000  0.17460000  0.26120000  1
  C  C45  1  0.34447000  0.97380000  0.67160000  1
  C  C46  1  0.58851000  0.12750000  0.18330000  1
  C  C47  1  0.58610000  0.02420000  0.17890000  1
  C  C48  1  0.62142000  0.97290000  0.25250000  1
  C  C49  1  0.65553000  0.02620000  0.32840000  1
  C  C50  1  0.54798000  0.96960000  0.09990000  1
  C  C51  1  0.54784000  0.85750000  0.10310000  1
  C  C52  1  0.78888000  0.23340000  0.23800000  1
  C  C53  1  0.81149000  0.21000000  0.08480000  1
  C  C54  1  0.79481000  0.10950000  0.01660000  1
  C  C55  1  0.80473000  0.02100000  0.12360000  1
  C  C56  1  0.45202000  0.03040000  0.90010000  1
  C  C57  1  0.78546000  0.91920000  0.07250000  1
  C  C58  1  0.12354000  0.67460000  0.26120000  1
  C  C59  1  0.08851000  0.62750000  0.18330000  1
  C  C60  1  0.08610000  0.52420000  0.17890000  1
  C  C61  1  0.12142000  0.47290000  0.25250000  1
  C  C62  1  0.15553000  0.52620000  0.32840000  1
  C  C63  1  0.04798000  0.46960000  0.09990000  1
  C  C64  1  0.04784000  0.35750000  0.10310000  1
  C  C65  1  0.28888000  0.73340000  0.23800000  1
  C  C66  1  0.31149000  0.71000000  0.08480000  1
  C  C67  1  0.45216000  0.14250000  0.89690000  1
  C  C68  1  0.29481000  0.60950000  0.01660000  1
  C  C69  1  0.30473000  0.52100000  0.12360000  1
  C  C70  1  0.28546000  0.41920000  0.07250000  1
  C  C71  1  0.37646000  0.17460000  0.23880000  1
  C  C72  1  0.41149000  0.12750000  0.31670000  1
  C  C73  1  0.41390000  0.02420000  0.32110000  1
  C  C74  1  0.37858000  0.97290000  0.24750000  1
  C  C75  1  0.34447000  0.02620000  0.17160000  1
  C  C76  1  0.45202000  0.96960000  0.40010000  1
  C  C77  1  0.45216000  0.85750000  0.39690000  1
  C  C78  1  0.21112000  0.76660000  0.76200000  1
  C  C79  1  0.21112000  0.23340000  0.26200000  1
  C  C80  1  0.18851000  0.21000000  0.41520000  1
  C  C81  1  0.20519000  0.10950000  0.48340000  1
  C  C82  1  0.19527000  0.02100000  0.37640000  1
  C  C83  1  0.21454000  0.91920000  0.42750000  1
  C  C84  1  0.87646000  0.67460000  0.23880000  1
  C  C85  1  0.91149000  0.62750000  0.31670000  1
  C  C86  1  0.91390000  0.52420000  0.32110000  1
  C  C87  1  0.87858000  0.47290000  0.24750000  1
  C  C88  1  0.84447000  0.52620000  0.17160000  1
  C  C89  1  0.18851000  0.79000000  0.91520000  1
  C  C90  1  0.95202000  0.46960000  0.40010000  1
  C  C91  1  0.95216000  0.35750000  0.39690000  1
  C  C92  1  0.71112000  0.73340000  0.26200000  1
  C  C93  1  0.68851000  0.71000000  0.41520000  1
  C  C94  1  0.70519000  0.60950000  0.48340000  1
  C  C95  1  0.69527000  0.52100000  0.37640000  1
  C  C96  1  0.71454000  0.41920000  0.42750000  1
  N  N1  1  0.34310000  0.87360000  0.66550000  1
  N  N2  1  0.51816000  0.02650000  0.03600000  1
  N  N3  1  0.15690000  0.62640000  0.33450000  1
  N  N4  1  0.01816000  0.52650000  0.03600000  1
  N  N5  1  0.34310000  0.12640000  0.16550000  1
  N  N6  1  0.48184000  0.02650000  0.46400000  1
  N  N7  1  0.84310000  0.62640000  0.16550000  1
  N  N8  1  0.98184000  0.52650000  0.46400000  1
  N  N9  1  0.48184000  0.97350000  0.96400000  1
  N  N10  1  0.84310000  0.37360000  0.66550000  1
  N  N11  1  0.98184000  0.47350000  0.96400000  1
  N  N12  1  0.65690000  0.87360000  0.83450000  1
  N  N13  1  0.51816000  0.97350000  0.53600000  1
  N  N14  1  0.15690000  0.37360000  0.83450000  1
  N  N15  1  0.01816000  0.47350000  0.53600000  1
  N  N16  1  0.65690000  0.12640000  0.33450000  1
  O  O1  1  0.25193000  0.79300000  0.74580000  1
  O  O2  1  0.81270000  0.72220000  0.84000000  1
  O  O3  1  0.80958000  0.15670000  0.59630000  1
  O  O4  1  0.74615000  0.08120000  0.51450000  1
  O  O5  1  0.24807000  0.29300000  0.75420000  1
  O  O6  1  0.31270000  0.22220000  0.84000000  1
  O  O7  1  0.30958000  0.65670000  0.59630000  1
  O  O8  1  0.24615000  0.58120000  0.51450000  1
  O  O9  1  0.74807000  0.20700000  0.25420000  1
  O  O10  1  0.81270000  0.27780000  0.34000000  1
  O  O11  1  0.80958000  0.84330000  0.09630000  1
  O  O12  1  0.18730000  0.72220000  0.66000000  1
  O  O13  1  0.74615000  0.91880000  0.01450000  1
  O  O14  1  0.24807000  0.70700000  0.25420000  1
  O  O15  1  0.31270000  0.77780000  0.34000000  1
  O  O16  1  0.30958000  0.34330000  0.09630000  1
  O  O17  1  0.24615000  0.41880000  0.01450000  1
  O  O18  1  0.25193000  0.20700000  0.24580000  1
  O  O19  1  0.18730000  0.27780000  0.16000000  1
  O  O20  1  0.19042000  0.84330000  0.40370000  1
  O  O21  1  0.25385000  0.91880000  0.48550000  1
  O  O22  1  0.75193000  0.70700000  0.24580000  1
  O  O23  1  0.19042000  0.15670000  0.90370000  1
  O  O24  1  0.68730000  0.77780000  0.16000000  1
  O  O25  1  0.69042000  0.34330000  0.40370000  1
  O  O26  1  0.75385000  0.41880000  0.48550000  1
  O  O27  1  0.25385000  0.08120000  0.98550000  1
  O  O28  1  0.75193000  0.29300000  0.74580000  1
  O  O29  1  0.68730000  0.22220000  0.66000000  1
  O  O30  1  0.69042000  0.65670000  0.90370000  1
  O  O31  1  0.75385000  0.58120000  0.98550000  1
  O  O32  1  0.74807000  0.79300000  0.75420000  1
