# generated using pymatgen
data_CuHC4O3
_symmetry_space_group_name_H-M   'P 1'
_cell_length_a   25.87610000
_cell_length_b   25.87610000
_cell_length_c   6.26260000
_cell_angle_alpha   90.00000000
_cell_angle_beta   90.00000000
_cell_angle_gamma   120.00000000
_symmetry_Int_Tables_number   1
_chemical_formula_structural   CuHC4O3
_chemical_formula_sum   'Cu18 H18 C72 O54'
_cell_volume   3631.47406608
_cell_formula_units_Z   18
loop_
 _symmetry_equiv_pos_site_id
 _symmetry_equiv_pos_as_xyz
  1  'x, y, z'
loop_
 _atom_site_type_symbol
 _atom_site_label
 _atom_site_symmetry_multiplicity
 _atom_site_fract_x
 _atom_site_fract_y
 _atom_site_fract_z
 _atom_site_occupancy
  Cu  Cu1  1  0.94730000  0.62980000  0.98400000  1
  Cu  Cu2  1  0.61397000  0.96313000  0.31733000  1
  Cu  Cu3  1  0.28063000  0.29647000  0.65067000  1
  Cu  Cu4  1  0.37020000  0.31750000  0.98400000  1
  Cu  Cu5  1  0.03687000  0.65083000  0.31733000  1
  Cu  Cu6  1  0.70353000  0.98417000  0.65067000  1
  Cu  Cu7  1  0.68250000  0.05270000  0.98400000  1
  Cu  Cu8  1  0.34917000  0.38603000  0.31733000  1
  Cu  Cu9  1  0.01583000  0.71937000  0.65067000  1
  Cu  Cu10  1  0.05270000  0.37020000  0.01600000  1
  Cu  Cu11  1  0.71937000  0.70353000  0.34933000  1
  Cu  Cu12  1  0.38603000  0.03687000  0.68267000  1
  Cu  Cu13  1  0.62980000  0.68250000  0.01600000  1
  Cu  Cu14  1  0.29647000  0.01583000  0.34933000  1
  Cu  Cu15  1  0.96313000  0.34917000  0.68267000  1
  Cu  Cu16  1  0.31750000  0.94730000  0.01600000  1
  Cu  Cu17  1  0.98417000  0.28063000  0.34933000  1
  Cu  Cu18  1  0.65083000  0.61397000  0.68267000  1
  H  H1  1  0.03650000  0.50500000  0.62900000  1
  H  H2  1  0.70317000  0.83833000  0.96233000  1
  H  H3  1  0.36983000  0.17167000  0.29567000  1
  H  H4  1  0.49500000  0.53150000  0.62900000  1
  H  H5  1  0.16167000  0.86483000  0.96233000  1
  H  H6  1  0.82833000  0.19817000  0.29567000  1
  H  H7  1  0.46850000  0.96350000  0.62900000  1
  H  H8  1  0.13517000  0.29683000  0.96233000  1
  H  H9  1  0.80183000  0.63017000  0.29567000  1
  H  H10  1  0.96350000  0.49500000  0.37100000  1
  H  H11  1  0.63017000  0.82833000  0.70433000  1
  H  H12  1  0.29683000  0.16167000  0.03767000  1
  H  H13  1  0.50500000  0.46850000  0.37100000  1
  H  H14  1  0.17167000  0.80183000  0.70433000  1
  H  H15  1  0.83833000  0.13517000  0.03767000  1
  H  H16  1  0.53150000  0.03650000  0.37100000  1
  H  H17  1  0.19817000  0.36983000  0.70433000  1
  H  H18  1  0.86483000  0.70317000  0.03767000  1
  C  C1  1  0.00720000  0.58920000  0.71100000  1
  C  C2  1  0.02030000  0.50190000  0.79500000  1
  C  C3  1  0.00530000  0.54440000  0.85900000  1
  C  C4  1  0.98500000  0.54300000  0.07100000  1
  C  C5  1  0.67387000  0.92253000  0.04433000  1
  C  C6  1  0.68697000  0.83523000  0.12833000  1
  C  C7  1  0.67197000  0.87773000  0.19233000  1
  C  C8  1  0.65167000  0.87633000  0.40433000  1
  C  C9  1  0.34053000  0.25587000  0.37767000  1
  C  C10  1  0.35363000  0.16857000  0.46167000  1
  C  C11  1  0.33863000  0.21107000  0.52567000  1
  C  C12  1  0.31833000  0.20967000  0.73767000  1
  C  C13  1  0.41080000  0.41800000  0.71100000  1
  C  C14  1  0.49810000  0.51840000  0.79500000  1
  C  C15  1  0.45560000  0.46090000  0.85900000  1
  C  C16  1  0.45700000  0.44200000  0.07100000  1
  C  C17  1  0.07747000  0.75133000  0.04433000  1
  C  C18  1  0.16477000  0.85173000  0.12833000  1
  C  C19  1  0.12227000  0.79423000  0.19233000  1
  C  C20  1  0.12367000  0.77533000  0.40433000  1
  C  C21  1  0.74413000  0.08467000  0.37767000  1
  C  C22  1  0.83143000  0.18507000  0.46167000  1
  C  C23  1  0.78893000  0.12757000  0.52567000  1
  C  C24  1  0.79033000  0.10867000  0.73767000  1
  C  C25  1  0.58200000  0.99280000  0.71100000  1
  C  C26  1  0.48160000  0.97970000  0.79500000  1
  C  C27  1  0.53910000  0.99470000  0.85900000  1
  C  C28  1  0.55800000  0.01500000  0.07100000  1
  C  C29  1  0.24867000  0.32613000  0.04433000  1
  C  C30  1  0.14827000  0.31303000  0.12833000  1
  C  C31  1  0.20577000  0.32803000  0.19233000  1
  C  C32  1  0.22467000  0.34833000  0.40433000  1
  C  C33  1  0.91533000  0.65947000  0.37767000  1
  C  C34  1  0.81493000  0.64637000  0.46167000  1
  C  C35  1  0.87243000  0.66137000  0.52567000  1
  C  C36  1  0.89133000  0.68167000  0.73767000  1
  C  C37  1  0.99280000  0.41080000  0.28900000  1
  C  C38  1  0.97970000  0.49810000  0.20500000  1
  C  C39  1  0.99470000  0.45560000  0.14100000  1
  C  C40  1  0.01500000  0.45700000  0.92900000  1
  C  C41  1  0.65947000  0.74413000  0.62233000  1
  C  C42  1  0.64637000  0.83143000  0.53833000  1
  C  C43  1  0.66137000  0.78893000  0.47433000  1
  C  C44  1  0.68167000  0.79033000  0.26233000  1
  C  C45  1  0.32613000  0.07747000  0.95567000  1
  C  C46  1  0.31303000  0.16477000  0.87167000  1
  C  C47  1  0.32803000  0.12227000  0.80767000  1
  C  C48  1  0.34833000  0.12367000  0.59567000  1
  C  C49  1  0.58920000  0.58200000  0.28900000  1
  C  C50  1  0.50190000  0.48160000  0.20500000  1
  C  C51  1  0.54440000  0.53910000  0.14100000  1
  C  C52  1  0.54300000  0.55800000  0.92900000  1
  C  C53  1  0.25587000  0.91533000  0.62233000  1
  C  C54  1  0.16857000  0.81493000  0.53833000  1
  C  C55  1  0.21107000  0.87243000  0.47433000  1
  C  C56  1  0.20967000  0.89133000  0.26233000  1
  C  C57  1  0.92253000  0.24867000  0.95567000  1
  C  C58  1  0.83523000  0.14827000  0.87167000  1
  C  C59  1  0.87773000  0.20577000  0.80767000  1
  C  C60  1  0.87633000  0.22467000  0.59567000  1
  C  C61  1  0.41800000  0.00720000  0.28900000  1
  C  C62  1  0.51840000  0.02030000  0.20500000  1
  C  C63  1  0.46090000  0.00530000  0.14100000  1
  C  C64  1  0.44200000  0.98500000  0.92900000  1
  C  C65  1  0.08467000  0.34053000  0.62233000  1
  C  C66  1  0.18507000  0.35363000  0.53833000  1
  C  C67  1  0.12757000  0.33863000  0.47433000  1
  C  C68  1  0.10867000  0.31833000  0.26233000  1
  C  C69  1  0.75133000  0.67387000  0.95567000  1
  C  C70  1  0.85173000  0.68697000  0.87167000  1
  C  C71  1  0.79423000  0.67197000  0.80767000  1
  C  C72  1  0.77533000  0.65167000  0.59567000  1
  O  O1  1  0.04090000  0.59910000  0.54700000  1
  O  O2  1  0.97960000  0.61530000  0.72400000  1
  O  O3  1  0.96870000  0.58200000  0.16500000  1
  O  O4  1  0.70757000  0.93243000  0.88033000  1
  O  O5  1  0.64627000  0.94863000  0.05733000  1
  O  O6  1  0.63537000  0.91533000  0.49833000  1
  O  O7  1  0.37423000  0.26577000  0.21367000  1
  O  O8  1  0.31293000  0.28197000  0.39067000  1
  O  O9  1  0.30203000  0.24867000  0.83167000  1
  O  O10  1  0.40090000  0.44180000  0.54700000  1
  O  O11  1  0.38470000  0.36430000  0.72400000  1
  O  O12  1  0.41800000  0.38670000  0.16500000  1
  O  O13  1  0.06757000  0.77513000  0.88033000  1
  O  O14  1  0.05137000  0.69763000  0.05733000  1
  O  O15  1  0.08467000  0.72003000  0.49833000  1
  O  O16  1  0.73423000  0.10847000  0.21367000  1
  O  O17  1  0.71803000  0.03097000  0.39067000  1
  O  O18  1  0.75133000  0.05337000  0.83167000  1
  O  O19  1  0.55820000  0.95910000  0.54700000  1
  O  O20  1  0.63570000  0.02040000  0.72400000  1
  O  O21  1  0.61330000  0.03130000  0.16500000  1
  O  O22  1  0.22487000  0.29243000  0.88033000  1
  O  O23  1  0.30237000  0.35373000  0.05733000  1
  O  O24  1  0.27997000  0.36463000  0.49833000  1
  O  O25  1  0.89153000  0.62577000  0.21367000  1
  O  O26  1  0.96903000  0.68707000  0.39067000  1
  O  O27  1  0.94663000  0.69797000  0.83167000  1
  O  O28  1  0.95910000  0.40090000  0.45300000  1
  O  O29  1  0.02040000  0.38470000  0.27600000  1
  O  O30  1  0.03130000  0.41800000  0.83500000  1
  O  O31  1  0.62577000  0.73423000  0.78633000  1
  O  O32  1  0.68707000  0.71803000  0.60933000  1
  O  O33  1  0.69797000  0.75133000  0.16833000  1
  O  O34  1  0.29243000  0.06757000  0.11967000  1
  O  O35  1  0.35373000  0.05137000  0.94267000  1
  O  O36  1  0.36463000  0.08467000  0.50167000  1
  O  O37  1  0.59910000  0.55820000  0.45300000  1
  O  O38  1  0.61530000  0.63570000  0.27600000  1
  O  O39  1  0.58200000  0.61330000  0.83500000  1
  O  O40  1  0.26577000  0.89153000  0.78633000  1
  O  O41  1  0.28197000  0.96903000  0.60933000  1
  O  O42  1  0.24867000  0.94663000  0.16833000  1
  O  O43  1  0.93243000  0.22487000  0.11967000  1
  O  O44  1  0.94863000  0.30237000  0.94267000  1
  O  O45  1  0.91533000  0.27997000  0.50167000  1
  O  O46  1  0.44180000  0.04090000  0.45300000  1
  O  O47  1  0.36430000  0.97960000  0.27600000  1
  O  O48  1  0.38670000  0.96870000  0.83500000  1
  O  O49  1  0.10847000  0.37423000  0.78633000  1
  O  O50  1  0.03097000  0.31293000  0.60933000  1
  O  O51  1  0.05337000  0.30203000  0.16833000  1
  O  O52  1  0.77513000  0.70757000  0.11967000  1
  O  O53  1  0.69763000  0.64627000  0.94267000  1
  O  O54  1  0.72003000  0.63537000  0.50167000  1
