# generated using pymatgen
data_CuH4(C5O2)2
_symmetry_space_group_name_H-M   'P 1'
_cell_length_a   12.81640000
_cell_length_b   22.28660000
_cell_length_c   22.28660000
_cell_angle_alpha   120.00000000
_cell_angle_beta   90.00000000
_cell_angle_gamma   90.00000000
_symmetry_Int_Tables_number   1
_chemical_formula_structural   CuH4(C5O2)2
_chemical_formula_sum   'Cu12 H48 C120 O48'
_cell_volume   5512.95340431
_cell_formula_units_Z   12
loop_
 _symmetry_equiv_pos_site_id
 _symmetry_equiv_pos_as_xyz
  1  'x, y, z'
loop_
 _atom_site_type_symbol
 _atom_site_label
 _atom_site_symmetry_multiplicity
 _atom_site_fract_x
 _atom_site_fract_y
 _atom_site_fract_z
 _atom_site_occupancy
  Cu  Cu1  1  0.25000000  0.00000000  0.37910000  1
  Cu  Cu2  1  0.25000000  0.00000000  0.26870000  1
  Cu  Cu3  1  0.25000000  0.37910000  0.00000000  1
  Cu  Cu4  1  0.25000000  0.26870000  0.00000000  1
  Cu  Cu5  1  0.25000000  0.62090000  0.62090000  1
  Cu  Cu6  1  0.25000000  0.73130000  0.73130000  1
  Cu  Cu7  1  0.75000000  0.00000000  0.62090000  1
  Cu  Cu8  1  0.75000000  0.00000000  0.73130000  1
  Cu  Cu9  1  0.75000000  0.62090000  0.00000000  1
  Cu  Cu10  1  0.75000000  0.73130000  0.00000000  1
  Cu  Cu11  1  0.75000000  0.37910000  0.37910000  1
  Cu  Cu12  1  0.75000000  0.26870000  0.26870000  1
  H  H1  1  0.09600000  0.82590000  0.33310000  1
  H  H2  1  0.09600000  0.50720000  0.17410000  1
  H  H3  1  0.09600000  0.66690000  0.49280000  1
  H  H4  1  0.59600000  0.17410000  0.66690000  1
  H  H5  1  0.59600000  0.49280000  0.82590000  1
  H  H6  1  0.59600000  0.33310000  0.50720000  1
  H  H7  1  0.40400000  0.49280000  0.66690000  1
  H  H8  1  0.40400000  0.33310000  0.82590000  1
  H  H9  1  0.40400000  0.17410000  0.50720000  1
  H  H10  1  0.90400000  0.50720000  0.33310000  1
  H  H11  1  0.90400000  0.66690000  0.17410000  1
  H  H12  1  0.90400000  0.82590000  0.49280000  1
  H  H13  1  0.90400000  0.17410000  0.66690000  1
  H  H14  1  0.90400000  0.49280000  0.82590000  1
  H  H15  1  0.90400000  0.33310000  0.50720000  1
  H  H16  1  0.40400000  0.82590000  0.33310000  1
  H  H17  1  0.40400000  0.50720000  0.17410000  1
  H  H18  1  0.40400000  0.66690000  0.49280000  1
  H  H19  1  0.59600000  0.50720000  0.33310000  1
  H  H20  1  0.59600000  0.66690000  0.17410000  1
  H  H21  1  0.59600000  0.82590000  0.49280000  1
  H  H22  1  0.09600000  0.49280000  0.66690000  1
  H  H23  1  0.09600000  0.33310000  0.82590000  1
  H  H24  1  0.09600000  0.17410000  0.50720000  1
  H  H25  1  0.00000000  0.84285000  0.15715000  1
  H  H26  1  0.00000000  0.31430000  0.15715000  1
  H  H27  1  0.00000000  0.84285000  0.68570000  1
  H  H28  1  0.50000000  0.15715000  0.84285000  1
  H  H29  1  0.50000000  0.68570000  0.84285000  1
  H  H30  1  0.50000000  0.15715000  0.31430000  1
  H  H31  1  0.00000000  0.15715000  0.84285000  1
  H  H32  1  0.00000000  0.68570000  0.84285000  1
  H  H33  1  0.00000000  0.15715000  0.31430000  1
  H  H34  1  0.50000000  0.84285000  0.15715000  1
  H  H35  1  0.50000000  0.31430000  0.15715000  1
  H  H36  1  0.50000000  0.84285000  0.68570000  1
  H  H37  1  0.00000000  0.60230000  0.20460000  1
  H  H38  1  0.00000000  0.60230000  0.39770000  1
  H  H39  1  0.00000000  0.79540000  0.39770000  1
  H  H40  1  0.50000000  0.39770000  0.79540000  1
  H  H41  1  0.50000000  0.39770000  0.60230000  1
  H  H42  1  0.50000000  0.20460000  0.60230000  1
  H  H43  1  0.00000000  0.39770000  0.79540000  1
  H  H44  1  0.00000000  0.39770000  0.60230000  1
  H  H45  1  0.00000000  0.20460000  0.60230000  1
  H  H46  1  0.50000000  0.60230000  0.20460000  1
  H  H47  1  0.50000000  0.60230000  0.39770000  1
  H  H48  1  0.50000000  0.79540000  0.39770000  1
  C  C1  1  0.05240000  0.80440000  0.28470000  1
  C  C2  1  0.11750000  0.90430000  0.27630000  1
  C  C3  1  0.05320000  0.84040000  0.24810000  1
  C  C4  1  0.05240000  0.48030000  0.19560000  1
  C  C5  1  0.11750000  0.37200000  0.09570000  1
  C  C6  1  0.05320000  0.40770000  0.15960000  1
  C  C7  1  0.05240000  0.71530000  0.51970000  1
  C  C8  1  0.11750000  0.72370000  0.62800000  1
  C  C9  1  0.05320000  0.75190000  0.59230000  1
  C  C10  1  0.55240000  0.19560000  0.71530000  1
  C  C11  1  0.61750000  0.09570000  0.72370000  1
  C  C12  1  0.55320000  0.15960000  0.75190000  1
  C  C13  1  0.55240000  0.51970000  0.80440000  1
  C  C14  1  0.61750000  0.62800000  0.90430000  1
  C  C15  1  0.55320000  0.59230000  0.84040000  1
  C  C16  1  0.55240000  0.28470000  0.48030000  1
  C  C17  1  0.61750000  0.27630000  0.37200000  1
  C  C18  1  0.55320000  0.24810000  0.40770000  1
  C  C19  1  0.44760000  0.51970000  0.71530000  1
  C  C20  1  0.38250000  0.62800000  0.72370000  1
  C  C21  1  0.44680000  0.59230000  0.75190000  1
  C  C22  1  0.44760000  0.28470000  0.80440000  1
  C  C23  1  0.38250000  0.27630000  0.90430000  1
  C  C24  1  0.44680000  0.24810000  0.84040000  1
  C  C25  1  0.44760000  0.19560000  0.48030000  1
  C  C26  1  0.38250000  0.09570000  0.37200000  1
  C  C27  1  0.44680000  0.15960000  0.40770000  1
  C  C28  1  0.94760000  0.48030000  0.28470000  1
  C  C29  1  0.88250000  0.37200000  0.27630000  1
  C  C30  1  0.94680000  0.40770000  0.24810000  1
  C  C31  1  0.94760000  0.71530000  0.19560000  1
  C  C32  1  0.88250000  0.72370000  0.09570000  1
  C  C33  1  0.94680000  0.75190000  0.15960000  1
  C  C34  1  0.94760000  0.80440000  0.51970000  1
  C  C35  1  0.88250000  0.90430000  0.62800000  1
  C  C36  1  0.94680000  0.84040000  0.59230000  1
  C  C37  1  0.94760000  0.19560000  0.71530000  1
  C  C38  1  0.88250000  0.09570000  0.72370000  1
  C  C39  1  0.94680000  0.15960000  0.75190000  1
  C  C40  1  0.94760000  0.51970000  0.80440000  1
  C  C41  1  0.88250000  0.62800000  0.90430000  1
  C  C42  1  0.94680000  0.59230000  0.84040000  1
  C  C43  1  0.94760000  0.28470000  0.48030000  1
  C  C44  1  0.88250000  0.27630000  0.37200000  1
  C  C45  1  0.94680000  0.24810000  0.40770000  1
  C  C46  1  0.44760000  0.80440000  0.28470000  1
  C  C47  1  0.38250000  0.90430000  0.27630000  1
  C  C48  1  0.44680000  0.84040000  0.24810000  1
  C  C49  1  0.44760000  0.48030000  0.19560000  1
  C  C50  1  0.38250000  0.37200000  0.09570000  1
  C  C51  1  0.44680000  0.40770000  0.15960000  1
  C  C52  1  0.44760000  0.71530000  0.51970000  1
  C  C53  1  0.38250000  0.72370000  0.62800000  1
  C  C54  1  0.44680000  0.75190000  0.59230000  1
  C  C55  1  0.55240000  0.48030000  0.28470000  1
  C  C56  1  0.61750000  0.37200000  0.27630000  1
  C  C57  1  0.55320000  0.40770000  0.24810000  1
  C  C58  1  0.55240000  0.71530000  0.19560000  1
  C  C59  1  0.61750000  0.72370000  0.09570000  1
  C  C60  1  0.55320000  0.75190000  0.15960000  1
  C  C61  1  0.55240000  0.80440000  0.51970000  1
  C  C62  1  0.61750000  0.90430000  0.62800000  1
  C  C63  1  0.55320000  0.84040000  0.59230000  1
  C  C64  1  0.05240000  0.51970000  0.71530000  1
  C  C65  1  0.11750000  0.62800000  0.72370000  1
  C  C66  1  0.05320000  0.59230000  0.75190000  1
  C  C67  1  0.05240000  0.28470000  0.80440000  1
  C  C68  1  0.11750000  0.27630000  0.90430000  1
  C  C69  1  0.05320000  0.24810000  0.84040000  1
  C  C70  1  0.05240000  0.19560000  0.48030000  1
  C  C71  1  0.11750000  0.09570000  0.37200000  1
  C  C72  1  0.05320000  0.15960000  0.40770000  1
  C  C73  1  0.00000000  0.70310000  0.29690000  1
  C  C74  1  0.00000000  0.74125000  0.25875000  1
  C  C75  1  0.00000000  0.81465000  0.18535000  1
  C  C76  1  0.00000000  0.59380000  0.29690000  1
  C  C77  1  0.00000000  0.51750000  0.25875000  1
  C  C78  1  0.00000000  0.37070000  0.18535000  1
  C  C79  1  0.00000000  0.70310000  0.40620000  1
  C  C80  1  0.00000000  0.74125000  0.48250000  1
  C  C81  1  0.00000000  0.81465000  0.62930000  1
  C  C82  1  0.50000000  0.29690000  0.70310000  1
  C  C83  1  0.50000000  0.25875000  0.74125000  1
  C  C84  1  0.50000000  0.18535000  0.81465000  1
  C  C85  1  0.50000000  0.40620000  0.70310000  1
  C  C86  1  0.50000000  0.48250000  0.74125000  1
  C  C87  1  0.50000000  0.62930000  0.81465000  1
  C  C88  1  0.50000000  0.29690000  0.59380000  1
  C  C89  1  0.50000000  0.25875000  0.51750000  1
  C  C90  1  0.50000000  0.18535000  0.37070000  1
  C  C91  1  0.00000000  0.29690000  0.70310000  1
  C  C92  1  0.00000000  0.25875000  0.74125000  1
  C  C93  1  0.00000000  0.18535000  0.81465000  1
  C  C94  1  0.00000000  0.40620000  0.70310000  1
  C  C95  1  0.00000000  0.48250000  0.74125000  1
  C  C96  1  0.00000000  0.62930000  0.81465000  1
  C  C97  1  0.00000000  0.29690000  0.59380000  1
  C  C98  1  0.00000000  0.25875000  0.51750000  1
  C  C99  1  0.00000000  0.18535000  0.37070000  1
  C  C100  1  0.50000000  0.70310000  0.29690000  1
  C  C101  1  0.50000000  0.74125000  0.25875000  1
  C  C102  1  0.50000000  0.81465000  0.18535000  1
  C  C103  1  0.50000000  0.59380000  0.29690000  1
  C  C104  1  0.50000000  0.51750000  0.25875000  1
  C  C105  1  0.50000000  0.37070000  0.18535000  1
  C  C106  1  0.50000000  0.70310000  0.40620000  1
  C  C107  1  0.50000000  0.74125000  0.48250000  1
  C  C108  1  0.50000000  0.81465000  0.62930000  1
  C  C109  1  0.00000000  0.63060000  0.26120000  1
  C  C110  1  0.00000000  0.63060000  0.36940000  1
  C  C111  1  0.00000000  0.73880000  0.36940000  1
  C  C112  1  0.50000000  0.36940000  0.73880000  1
  C  C113  1  0.50000000  0.36940000  0.63060000  1
  C  C114  1  0.50000000  0.26120000  0.63060000  1
  C  C115  1  0.00000000  0.36940000  0.73880000  1
  C  C116  1  0.00000000  0.36940000  0.63060000  1
  C  C117  1  0.00000000  0.26120000  0.63060000  1
  C  C118  1  0.50000000  0.63060000  0.26120000  1
  C  C119  1  0.50000000  0.63060000  0.36940000  1
  C  C120  1  0.50000000  0.73880000  0.36940000  1
  O  O1  1  0.14230000  0.92660000  0.23560000  1
  O  O2  1  0.14500000  0.92920000  0.33970000  1
  O  O3  1  0.14230000  0.30900000  0.07340000  1
  O  O4  1  0.14500000  0.41050000  0.07080000  1
  O  O5  1  0.14230000  0.76440000  0.69100000  1
  O  O6  1  0.14500000  0.66030000  0.58950000  1
  O  O7  1  0.64230000  0.07340000  0.76440000  1
  O  O8  1  0.64500000  0.07080000  0.66030000  1
  O  O9  1  0.64230000  0.69100000  0.92660000  1
  O  O10  1  0.64500000  0.58950000  0.92920000  1
  O  O11  1  0.64230000  0.23560000  0.30900000  1
  O  O12  1  0.64500000  0.33970000  0.41050000  1
  O  O13  1  0.35770000  0.69100000  0.76440000  1
  O  O14  1  0.35500000  0.58950000  0.66030000  1
  O  O15  1  0.35770000  0.23560000  0.92660000  1
  O  O16  1  0.35500000  0.33970000  0.92920000  1
  O  O17  1  0.35770000  0.07340000  0.30900000  1
  O  O18  1  0.35500000  0.07080000  0.41050000  1
  O  O19  1  0.85770000  0.30900000  0.23560000  1
  O  O20  1  0.85500000  0.41050000  0.33970000  1
  O  O21  1  0.85770000  0.76440000  0.07340000  1
  O  O22  1  0.85500000  0.66030000  0.07080000  1
  O  O23  1  0.85770000  0.92660000  0.69100000  1
  O  O24  1  0.85500000  0.92920000  0.58950000  1
  O  O25  1  0.85770000  0.07340000  0.76440000  1
  O  O26  1  0.85500000  0.07080000  0.66030000  1
  O  O27  1  0.85770000  0.69100000  0.92660000  1
  O  O28  1  0.85500000  0.58950000  0.92920000  1
  O  O29  1  0.85770000  0.23560000  0.30900000  1
  O  O30  1  0.85500000  0.33970000  0.41050000  1
  O  O31  1  0.35770000  0.92660000  0.23560000  1
  O  O32  1  0.35500000  0.92920000  0.33970000  1
  O  O33  1  0.35770000  0.30900000  0.07340000  1
  O  O34  1  0.35500000  0.41050000  0.07080000  1
  O  O35  1  0.35770000  0.76440000  0.69100000  1
  O  O36  1  0.35500000  0.66030000  0.58950000  1
  O  O37  1  0.64230000  0.30900000  0.23560000  1
  O  O38  1  0.64500000  0.41050000  0.33970000  1
  O  O39  1  0.64230000  0.76440000  0.07340000  1
  O  O40  1  0.64500000  0.66030000  0.07080000  1
  O  O41  1  0.64230000  0.92660000  0.69100000  1
  O  O42  1  0.64500000  0.92920000  0.58950000  1
  O  O43  1  0.14230000  0.69100000  0.76440000  1
  O  O44  1  0.14500000  0.58950000  0.66030000  1
  O  O45  1  0.14230000  0.23560000  0.92660000  1
  O  O46  1  0.14500000  0.33970000  0.92920000  1
  O  O47  1  0.14230000  0.07340000  0.30900000  1
  O  O48  1  0.14500000  0.07080000  0.41050000  1
