# generated using pymatgen
data_CuH11C17O5F3
_symmetry_space_group_name_H-M   'P 1'
_cell_length_a   25.99460000
_cell_length_b   25.99460000
_cell_length_c   23.90540000
_cell_angle_alpha   90.00000000
_cell_angle_beta   90.00000000
_cell_angle_gamma   90.00000000
_symmetry_Int_Tables_number   1
_chemical_formula_structural   CuH11C17O5F3
_chemical_formula_sum   'Cu16 H176 C272 O80 F48'
_cell_volume   16153.33846076
_cell_formula_units_Z   16
loop_
 _symmetry_equiv_pos_site_id
 _symmetry_equiv_pos_as_xyz
  1  'x, y, z'
loop_
 _atom_site_type_symbol
 _atom_site_label
 _atom_site_symmetry_multiplicity
 _atom_site_fract_x
 _atom_site_fract_y
 _atom_site_fract_z
 _atom_site_occupancy
  Cu  Cu1  1  0.01004700  0.95383900  0.96072900  1
  Cu  Cu2  1  0.01004700  0.02606800  0.03927100  1
  Cu  Cu3  1  0.51004700  0.02606800  0.46072900  1
  Cu  Cu4  1  0.51004700  0.95383900  0.53927100  1
  Cu  Cu5  1  0.29616100  0.73995300  0.21072900  1
  Cu  Cu6  1  0.22393200  0.73995300  0.28927100  1
  Cu  Cu7  1  0.22393200  0.23995300  0.71072900  1
  Cu  Cu8  1  0.29616100  0.23995300  0.78927100  1
  Cu  Cu9  1  0.72393200  0.23995300  0.78927100  1
  Cu  Cu10  1  0.79616100  0.23995300  0.71072900  1
  Cu  Cu11  1  0.79616100  0.73995300  0.28927100  1
  Cu  Cu12  1  0.72393200  0.73995300  0.21072900  1
  Cu  Cu13  1  0.51004700  0.45383900  0.46072900  1
  Cu  Cu14  1  0.51004700  0.52606800  0.53927100  1
  Cu  Cu15  1  0.01004700  0.52606800  0.96072900  1
  Cu  Cu16  1  0.01004700  0.45383900  0.03927100  1
  H  H1  1  0.91931400  0.91557500  0.77028900  1
  H  H2  1  0.91832500  0.84573200  0.77400700  1
  H  H3  1  0.88075500  0.88075500  0.71932000  1
  H  H4  1  0.82048600  0.91242100  0.79535900  1
  H  H5  1  0.83292100  0.84527300  0.80756800  1
  H  H6  1  0.90363200  0.87848600  0.95953800  1
  H  H7  1  0.75482100  0.89847100  0.03804700  1
  H  H8  1  0.77351800  0.91718300  0.86169400  1
  H  H9  1  0.96685700  0.88166500  0.13829700  1
  H  H10  1  0.91191900  0.83356500  0.20977000  1
  H  H11  1  0.78688500  0.84290000  0.09261600  1
  H  H12  1  0.60077900  0.06433100  0.27028900  1
  H  H13  1  0.60176900  0.13417500  0.27400700  1
  H  H14  1  0.63933800  0.09915200  0.21932000  1
  H  H15  1  0.69960700  0.06748600  0.29535900  1
  H  H16  1  0.68717200  0.13463400  0.30756800  1
  H  H17  1  0.61646100  0.10142100  0.45953800  1
  H  H18  1  0.76527200  0.08143600  0.53804700  1
  H  H19  1  0.74657500  0.06272400  0.36169400  1
  H  H20  1  0.55323600  0.09824200  0.63829700  1
  H  H21  1  0.60817400  0.14634200  0.70977000  1
  H  H22  1  0.73320900  0.13700600  0.59261600  1
  H  H23  1  0.33442500  0.64922100  0.02028900  1
  H  H24  1  0.40426800  0.64823100  0.02400700  1
  H  H25  1  0.36924500  0.61066200  0.96932000  1
  H  H26  1  0.33757900  0.55039300  0.04535900  1
  H  H27  1  0.40472700  0.56282800  0.05756800  1
  H  H28  1  0.37151400  0.63353900  0.20953800  1
  H  H29  1  0.35152900  0.48472800  0.28804700  1
  H  H30  1  0.33281700  0.50342500  0.11169400  1
  H  H31  1  0.36833500  0.69676400  0.38829700  1
  H  H32  1  0.41643500  0.64182600  0.45977000  1
  H  H33  1  0.40710000  0.51679100  0.34261600  1
  H  H34  1  0.18566900  0.33068600  0.52028900  1
  H  H35  1  0.11582500  0.33167500  0.52400700  1
  H  H36  1  0.15084800  0.36924500  0.46932000  1
  H  H37  1  0.18251400  0.42951400  0.54535900  1
  H  H38  1  0.11536600  0.41707900  0.55756800  1
  H  H39  1  0.14857900  0.34636800  0.70953800  1
  H  H40  1  0.16856400  0.49517900  0.78804700  1
  H  H41  1  0.18727600  0.47648200  0.61169400  1
  H  H42  1  0.15175800  0.28314300  0.88829700  1
  H  H43  1  0.10365800  0.33808100  0.95977000  1
  H  H44  1  0.11299400  0.46311500  0.84261600  1
  H  H45  1  0.60077900  0.91557500  0.72971100  1
  H  H46  1  0.60176900  0.84573200  0.72599300  1
  H  H47  1  0.63933800  0.88075500  0.78068000  1
  H  H48  1  0.69960700  0.91242100  0.70464100  1
  H  H49  1  0.68717200  0.84527300  0.69243200  1
  H  H50  1  0.61646100  0.87848600  0.54046200  1
  H  H51  1  0.76527200  0.89847100  0.46195300  1
  H  H52  1  0.74657500  0.91718300  0.63830600  1
  H  H53  1  0.55323600  0.88166500  0.36170300  1
  H  H54  1  0.60817400  0.83356500  0.29023000  1
  H  H55  1  0.73320900  0.84290000  0.40738400  1
  H  H56  1  0.91931400  0.06433100  0.22971100  1
  H  H57  1  0.91832500  0.13417500  0.22599300  1
  H  H58  1  0.88075500  0.09915200  0.28068000  1
  H  H59  1  0.82048600  0.06748600  0.20464100  1
  H  H60  1  0.83292100  0.13463400  0.19243200  1
  H  H61  1  0.90363200  0.10142100  0.04046200  1
  H  H62  1  0.75482100  0.08143600  0.96195300  1
  H  H63  1  0.77351800  0.06272400  0.13830600  1
  H  H64  1  0.96685700  0.09824200  0.86170300  1
  H  H65  1  0.91191900  0.14634200  0.79023000  1
  H  H66  1  0.78688500  0.13700600  0.90738400  1
  H  H67  1  0.18566900  0.64922100  0.47971100  1
  H  H68  1  0.11582500  0.64823100  0.47599300  1
  H  H69  1  0.15084800  0.61066200  0.53068000  1
  H  H70  1  0.18251400  0.55039300  0.45464100  1
  H  H71  1  0.11536600  0.56282800  0.44243200  1
  H  H72  1  0.14857900  0.63353900  0.29046200  1
  H  H73  1  0.16856400  0.48472800  0.21195300  1
  H  H74  1  0.18727600  0.50342500  0.38830600  1
  H  H75  1  0.15175800  0.69676400  0.11170300  1
  H  H76  1  0.10365800  0.64182600  0.04023000  1
  H  H77  1  0.11299400  0.51679100  0.15738400  1
  H  H78  1  0.33442500  0.33068600  0.97971100  1
  H  H79  1  0.40426800  0.33167500  0.97599300  1
  H  H80  1  0.36924500  0.36924500  0.03068000  1
  H  H81  1  0.33757900  0.42951400  0.95464100  1
  H  H82  1  0.40472700  0.41707900  0.94243200  1
  H  H83  1  0.37151400  0.34636800  0.79046200  1
  H  H84  1  0.35152900  0.49517900  0.71195300  1
  H  H85  1  0.33281700  0.47648200  0.88830600  1
  H  H86  1  0.36833500  0.28314300  0.61170300  1
  H  H87  1  0.41643500  0.33808100  0.54023000  1
  H  H88  1  0.40710000  0.46311500  0.65738400  1
  H  H89  1  0.10077900  0.06433100  0.22971100  1
  H  H90  1  0.10176900  0.13417500  0.22599300  1
  H  H91  1  0.13933800  0.09915200  0.28068000  1
  H  H92  1  0.19960700  0.06748600  0.20464100  1
  H  H93  1  0.18717200  0.13463400  0.19243200  1
  H  H94  1  0.11646100  0.10142100  0.04046200  1
  H  H95  1  0.26527200  0.08143600  0.96195300  1
  H  H96  1  0.24657500  0.06272400  0.13830600  1
  H  H97  1  0.05323600  0.09824200  0.86170300  1
  H  H98  1  0.10817400  0.14634200  0.79023000  1
  H  H99  1  0.23320900  0.13700600  0.90738400  1
  H  H100  1  0.41931400  0.91557500  0.72971100  1
  H  H101  1  0.41832500  0.84573200  0.72599300  1
  H  H102  1  0.38075500  0.88075500  0.78068000  1
  H  H103  1  0.32048600  0.91242100  0.70464100  1
  H  H104  1  0.33292100  0.84527300  0.69243200  1
  H  H105  1  0.40363200  0.87848600  0.54046200  1
  H  H106  1  0.25482100  0.89847100  0.46195300  1
  H  H107  1  0.27351800  0.91718300  0.63830600  1
  H  H108  1  0.46685700  0.88166500  0.36170300  1
  H  H109  1  0.41191900  0.83356500  0.29023000  1
  H  H110  1  0.28688500  0.84290000  0.40738400  1
  H  H111  1  0.68566900  0.33068600  0.97971100  1
  H  H112  1  0.61582500  0.33167500  0.97599300  1
  H  H113  1  0.65084800  0.36924500  0.03068000  1
  H  H114  1  0.68251400  0.42951400  0.95464100  1
  H  H115  1  0.61536600  0.41707900  0.94243200  1
  H  H116  1  0.64857900  0.34636800  0.79046200  1
  H  H117  1  0.66856400  0.49517900  0.71195300  1
  H  H118  1  0.68727600  0.47648200  0.88830600  1
  H  H119  1  0.65175800  0.28314300  0.61170300  1
  H  H120  1  0.60365800  0.33808100  0.54023000  1
  H  H121  1  0.61299400  0.46311500  0.65738400  1
  H  H122  1  0.83442500  0.64922100  0.47971100  1
  H  H123  1  0.90426800  0.64823100  0.47599300  1
  H  H124  1  0.86924500  0.61066200  0.53068000  1
  H  H125  1  0.83757900  0.55039300  0.45464100  1
  H  H126  1  0.90472700  0.56282800  0.44243200  1
  H  H127  1  0.87151400  0.63353900  0.29046200  1
  H  H128  1  0.85152900  0.48472800  0.21195300  1
  H  H129  1  0.83281700  0.50342500  0.38830600  1
  H  H130  1  0.86833500  0.69676400  0.11170300  1
  H  H131  1  0.91643500  0.64182600  0.04023000  1
  H  H132  1  0.90710000  0.51679100  0.15738400  1
  H  H133  1  0.41931400  0.06433100  0.27028900  1
  H  H134  1  0.41832500  0.13417500  0.27400700  1
  H  H135  1  0.38075500  0.09915200  0.21932000  1
  H  H136  1  0.32048600  0.06748600  0.29535900  1
  H  H137  1  0.33292100  0.13463400  0.30756800  1
  H  H138  1  0.40363200  0.10142100  0.45953800  1
  H  H139  1  0.25482100  0.08143600  0.53804700  1
  H  H140  1  0.27351800  0.06272400  0.36169400  1
  H  H141  1  0.46685700  0.09824200  0.63829700  1
  H  H142  1  0.41191900  0.14634200  0.70977000  1
  H  H143  1  0.28688500  0.13700600  0.59261600  1
  H  H144  1  0.10077900  0.91557500  0.77028900  1
  H  H145  1  0.10176900  0.84573200  0.77400700  1
  H  H146  1  0.13933800  0.88075500  0.71932000  1
  H  H147  1  0.19960700  0.91242100  0.79535900  1
  H  H148  1  0.18717200  0.84527300  0.80756800  1
  H  H149  1  0.11646100  0.87848600  0.95953800  1
  H  H150  1  0.26527200  0.89847100  0.03804700  1
  H  H151  1  0.24657500  0.91718300  0.86169400  1
  H  H152  1  0.05323600  0.88166500  0.13829700  1
  H  H153  1  0.10817400  0.83356500  0.20977000  1
  H  H154  1  0.23320900  0.84290000  0.09261600  1
  H  H155  1  0.83442500  0.33068600  0.52028900  1
  H  H156  1  0.90426800  0.33167500  0.52400700  1
  H  H157  1  0.86924500  0.36924500  0.46932000  1
  H  H158  1  0.83757900  0.42951400  0.54535900  1
  H  H159  1  0.90472700  0.41707900  0.55756800  1
  H  H160  1  0.87151400  0.34636800  0.70953800  1
  H  H161  1  0.85152900  0.49517900  0.78804700  1
  H  H162  1  0.83281700  0.47648200  0.61169400  1
  H  H163  1  0.86833500  0.28314300  0.88829700  1
  H  H164  1  0.91643500  0.33808100  0.95977000  1
  H  H165  1  0.90710000  0.46311500  0.84261600  1
  H  H166  1  0.68566900  0.64922100  0.02028900  1
  H  H167  1  0.61582500  0.64823100  0.02400700  1
  H  H168  1  0.65084800  0.61066200  0.96932000  1
  H  H169  1  0.68251400  0.55039300  0.04535900  1
  H  H170  1  0.61536600  0.56282800  0.05756800  1
  H  H171  1  0.64857900  0.63353900  0.20953800  1
  H  H172  1  0.66856400  0.48472800  0.28804700  1
  H  H173  1  0.68727600  0.50342500  0.11169400  1
  H  H174  1  0.65175800  0.69676400  0.38829700  1
  H  H175  1  0.60365800  0.64182600  0.45977000  1
  H  H176  1  0.61299400  0.51679100  0.34261600  1
  C  C1  1  0.07864900  0.53846300  0.05274900  1
  C  C2  1  0.07864900  0.44144400  0.94725100  1
  C  C3  1  0.94144400  0.44144400  0.94725100  1
  C  C4  1  0.94144400  0.53846300  0.05274900  1
  C  C5  1  0.07864900  0.94144400  0.05274900  1
  C  C6  1  0.89304700  0.88021800  0.76283300  1
  C  C7  1  0.84983400  0.88341800  0.80831100  1
  C  C8  1  0.84020100  0.89911000  0.90722300  1
  C  C9  1  0.86392600  0.89197300  0.95956200  1
  C  C10  1  0.83378700  0.89557700  0.00712700  1
  C  C11  1  0.77883400  0.89926400  0.00110300  1
  C  C12  1  0.75437800  0.90747900  0.94940300  1
  C  C13  1  0.78766600  0.90702600  0.90077500  1
  C  C14  1  0.69871300  0.91424600  0.94508300  1
  C  C15  1  0.85536800  0.88464600  0.06197800  1
  C  C16  1  0.90541300  0.90105300  0.08232500  1
  C  C17  1  0.92565200  0.87759400  0.12925500  1
  C  C18  1  0.89560700  0.84680000  0.16878500  1
  C  C19  1  0.84353100  0.83709800  0.15477200  1
  C  C20  1  0.82710300  0.85486600  0.10299400  1
  C  C21  1  0.62704600  0.09968900  0.26283300  1
  C  C22  1  0.67025900  0.09648800  0.30831100  1
  C  C23  1  0.67989200  0.08079600  0.40722300  1
  C  C24  1  0.65616700  0.08793400  0.45956200  1
  C  C25  1  0.68630600  0.08432900  0.50712700  1
  C  C26  1  0.74125900  0.08064300  0.50110300  1
  C  C27  1  0.76571500  0.07242800  0.44940300  1
  C  C28  1  0.73242700  0.07288000  0.40077500  1
  C  C29  1  0.82138100  0.06566100  0.44508300  1
  C  C30  1  0.57864900  0.03846300  0.55274900  1
  C  C31  1  0.66472500  0.09526100  0.56197800  1
  C  C32  1  0.61468000  0.07885400  0.58232500  1
  C  C33  1  0.59444200  0.10231300  0.62925500  1
  C  C34  1  0.62448600  0.13310700  0.66878500  1
  C  C35  1  0.67656300  0.14280900  0.65477200  1
  C  C36  1  0.69299000  0.12504100  0.60299400  1
  C  C37  1  0.36978200  0.62295400  0.01283300  1
  C  C38  1  0.36658200  0.57974100  0.05831100  1
  C  C39  1  0.35089000  0.57010800  0.15722300  1
  C  C40  1  0.35802700  0.59383300  0.20956200  1
  C  C41  1  0.35442300  0.56369400  0.25712700  1
  C  C42  1  0.35073600  0.50874100  0.25110300  1
  C  C43  1  0.34252100  0.48428500  0.19940300  1
  C  C44  1  0.34297400  0.51757300  0.15077500  1
  C  C45  1  0.33575400  0.42861900  0.19508300  1
  C  C46  1  0.57864900  0.94144400  0.44725100  1
  C  C47  1  0.36535400  0.58527500  0.31197800  1
  C  C48  1  0.34894700  0.63532000  0.33232500  1
  C  C49  1  0.37240600  0.65555800  0.37925500  1
  C  C50  1  0.40320000  0.62551400  0.41878500  1
  C  C51  1  0.41290200  0.57343700  0.40477200  1
  C  C52  1  0.94144400  0.94144400  0.05274900  1
  C  C53  1  0.39513400  0.55701000  0.35299400  1
  C  C54  1  0.15031100  0.35695300  0.51283300  1
  C  C55  1  0.15351200  0.40016600  0.55831100  1
  C  C56  1  0.16920400  0.40979900  0.65722300  1
  C  C57  1  0.16206600  0.38607400  0.70956200  1
  C  C58  1  0.16567100  0.41621300  0.75712700  1
  C  C59  1  0.16935700  0.47116600  0.75110300  1
  C  C60  1  0.17757200  0.49562200  0.69940300  1
  C  C61  1  0.17712000  0.46233400  0.65077500  1
  C  C62  1  0.18433900  0.55128700  0.69508300  1
  C  C63  1  0.44144400  0.94144400  0.44725100  1
  C  C64  1  0.15473900  0.39463200  0.81197800  1
  C  C65  1  0.17114600  0.34458700  0.83232500  1
  C  C66  1  0.14768700  0.32434800  0.87925500  1
  C  C67  1  0.11689300  0.35439300  0.91878500  1
  C  C68  1  0.10719100  0.40646900  0.90477200  1
  C  C69  1  0.12495900  0.42289700  0.85299400  1
  C  C70  1  0.62704600  0.88021800  0.73716700  1
  C  C71  1  0.67025900  0.88341800  0.69168900  1
  C  C72  1  0.67989200  0.89911000  0.59277700  1
  C  C73  1  0.65616700  0.89197300  0.54043800  1
  C  C74  1  0.68630600  0.89557700  0.49287300  1
  C  C75  1  0.74125900  0.89926400  0.49889700  1
  C  C76  1  0.76571500  0.90747900  0.55059700  1
  C  C77  1  0.73242700  0.90702600  0.59922500  1
  C  C78  1  0.82138100  0.91424600  0.55491700  1
  C  C79  1  0.44144400  0.03846300  0.55274900  1
  C  C80  1  0.66472500  0.88464600  0.43802200  1
  C  C81  1  0.61468000  0.90105300  0.41767500  1
  C  C82  1  0.59444200  0.87759400  0.37074500  1
  C  C83  1  0.62448600  0.84680000  0.33121500  1
  C  C84  1  0.67656300  0.83709800  0.34522800  1
  C  C85  1  0.69299000  0.85486600  0.39700600  1
  C  C86  1  0.89304700  0.09968900  0.23716700  1
  C  C87  1  0.84983400  0.09648800  0.19168900  1
  C  C88  1  0.84020100  0.08079600  0.09277700  1
  C  C89  1  0.86392600  0.08793400  0.04043800  1
  C  C90  1  0.83378700  0.08432900  0.99287300  1
  C  C91  1  0.77883400  0.08064300  0.99889700  1
  C  C92  1  0.75437800  0.07242800  0.05059700  1
  C  C93  1  0.78766600  0.07288000  0.09922500  1
  C  C94  1  0.69871300  0.06566100  0.05491700  1
  C  C95  1  0.85536800  0.09526100  0.93802200  1
  C  C96  1  0.90541300  0.07885400  0.91767500  1
  C  C97  1  0.92565200  0.10231300  0.87074500  1
  C  C98  1  0.89560700  0.13310700  0.83121500  1
  C  C99  1  0.84353100  0.14280900  0.84522800  1
  C  C100  1  0.82710300  0.12504100  0.89700600  1
  C  C101  1  0.15031100  0.62295400  0.48716700  1
  C  C102  1  0.15351200  0.57974100  0.44168900  1
  C  C103  1  0.16920400  0.57010800  0.34277700  1
  C  C104  1  0.16206600  0.59383300  0.29043800  1
  C  C105  1  0.16567100  0.56369400  0.24287300  1
  C  C106  1  0.16935700  0.50874100  0.24889700  1
  C  C107  1  0.17757200  0.48428500  0.30059700  1
  C  C108  1  0.30855600  0.67135100  0.30274900  1
  C  C109  1  0.17712000  0.51757300  0.34922500  1
  C  C110  1  0.18433900  0.42861900  0.30491700  1
  C  C111  1  0.15473900  0.58527500  0.18802200  1
  C  C112  1  0.17114600  0.63532000  0.16767500  1
  C  C113  1  0.14768700  0.65555800  0.12074500  1
  C  C114  1  0.11689300  0.62551400  0.08121500  1
  C  C115  1  0.10719100  0.57343700  0.09522800  1
  C  C116  1  0.12495900  0.55701000  0.14700600  1
  C  C117  1  0.36978200  0.35695300  0.98716700  1
  C  C118  1  0.36658200  0.40016600  0.94168900  1
  C  C119  1  0.35089000  0.40979900  0.84277700  1
  C  C120  1  0.35802700  0.38607400  0.79043800  1
  C  C121  1  0.35442300  0.41621300  0.74287300  1
  C  C122  1  0.35073600  0.47116600  0.74889700  1
  C  C123  1  0.34252100  0.49562200  0.80059700  1
  C  C124  1  0.21153700  0.67135100  0.19725100  1
  C  C125  1  0.34297400  0.46233400  0.84922500  1
  C  C126  1  0.33575400  0.55128700  0.80491700  1
  C  C127  1  0.36535400  0.39463200  0.68802200  1
  C  C128  1  0.34894700  0.34458700  0.66767500  1
  C  C129  1  0.37240600  0.32434800  0.62074500  1
  C  C130  1  0.40320000  0.35439300  0.58121500  1
  C  C131  1  0.41290200  0.40646900  0.59522800  1
  C  C132  1  0.39513400  0.42289700  0.64700600  1
  C  C133  1  0.12704600  0.09968900  0.23716700  1
  C  C134  1  0.17025900  0.09648800  0.19168900  1
  C  C135  1  0.17989200  0.08079600  0.09277700  1
  C  C136  1  0.15616700  0.08793400  0.04043800  1
  C  C137  1  0.18630600  0.08432900  0.99287300  1
  C  C138  1  0.24125900  0.08064300  0.99889700  1
  C  C139  1  0.26571500  0.07242800  0.05059700  1
  C  C140  1  0.21153700  0.80855600  0.19725100  1
  C  C141  1  0.23242700  0.07288000  0.09922500  1
  C  C142  1  0.32138100  0.06566100  0.05491700  1
  C  C143  1  0.16472500  0.09526100  0.93802200  1
  C  C144  1  0.11468000  0.07885400  0.91767500  1
  C  C145  1  0.09444200  0.10231300  0.87074500  1
  C  C146  1  0.12448600  0.13310700  0.83121500  1
  C  C147  1  0.17656300  0.14280900  0.84522800  1
  C  C148  1  0.19299000  0.12504100  0.89700600  1
  C  C149  1  0.39304700  0.88021800  0.73716700  1
  C  C150  1  0.34983400  0.88341800  0.69168900  1
  C  C151  1  0.34020100  0.89911000  0.59277700  1
  C  C152  1  0.36392600  0.89197300  0.54043800  1
  C  C153  1  0.33378700  0.89557700  0.49287300  1
  C  C154  1  0.27883400  0.89926400  0.49889700  1
  C  C155  1  0.25437800  0.90747900  0.55059700  1
  C  C156  1  0.30855600  0.80855600  0.30274900  1
  C  C157  1  0.28766600  0.90702600  0.59922500  1
  C  C158  1  0.19871300  0.91424600  0.55491700  1
  C  C159  1  0.35536800  0.88464600  0.43802200  1
  C  C160  1  0.40541300  0.90105300  0.41767500  1
  C  C161  1  0.42565200  0.87759400  0.37074500  1
  C  C162  1  0.39560700  0.84680000  0.33121500  1
  C  C163  1  0.34353100  0.83709800  0.34522800  1
  C  C164  1  0.32710300  0.85486600  0.39700600  1
  C  C165  1  0.65031100  0.35695300  0.98716700  1
  C  C166  1  0.65351200  0.40016600  0.94168900  1
  C  C167  1  0.66920400  0.40979900  0.84277700  1
  C  C168  1  0.66206600  0.38607400  0.79043800  1
  C  C169  1  0.66567100  0.41621300  0.74287300  1
  C  C170  1  0.66935700  0.47116600  0.74889700  1
  C  C171  1  0.67757200  0.49562200  0.80059700  1
  C  C172  1  0.67712000  0.46233400  0.84922500  1
  C  C173  1  0.68433900  0.55128700  0.80491700  1
  C  C174  1  0.65473900  0.39463200  0.68802200  1
  C  C175  1  0.67114600  0.34458700  0.66767500  1
  C  C176  1  0.64768700  0.32434800  0.62074500  1
  C  C177  1  0.61689300  0.35439300  0.58121500  1
  C  C178  1  0.60719100  0.40646900  0.59522800  1
  C  C179  1  0.21153700  0.30855600  0.80274900  1
  C  C180  1  0.62495900  0.42289700  0.64700600  1
  C  C181  1  0.86978200  0.62295400  0.48716700  1
  C  C182  1  0.86658200  0.57974100  0.44168900  1
  C  C183  1  0.85089000  0.57010800  0.34277700  1
  C  C184  1  0.85802700  0.59383300  0.29043800  1
  C  C185  1  0.85442300  0.56369400  0.24287300  1
  C  C186  1  0.85073600  0.50874100  0.24889700  1
  C  C187  1  0.84252100  0.48428500  0.30059700  1
  C  C188  1  0.84297400  0.51757300  0.34922500  1
  C  C189  1  0.83575400  0.42861900  0.30491700  1
  C  C190  1  0.86535400  0.58527500  0.18802200  1
  C  C191  1  0.84894700  0.63532000  0.16767500  1
  C  C192  1  0.87240600  0.65555800  0.12074500  1
  C  C193  1  0.90320000  0.62551400  0.08121500  1
  C  C194  1  0.91290200  0.57343700  0.09522800  1
  C  C195  1  0.30855600  0.30855600  0.69725100  1
  C  C196  1  0.89513400  0.55701000  0.14700600  1
  C  C197  1  0.39304700  0.09968900  0.26283300  1
  C  C198  1  0.34983400  0.09648800  0.30831100  1
  C  C199  1  0.34020100  0.08079600  0.40722300  1
  C  C200  1  0.36392600  0.08793400  0.45956200  1
  C  C201  1  0.33378700  0.08432900  0.50712700  1
  C  C202  1  0.27883400  0.08064300  0.50110300  1
  C  C203  1  0.25437800  0.07242800  0.44940300  1
  C  C204  1  0.28766600  0.07288000  0.40077500  1
  C  C205  1  0.19871300  0.06566100  0.44508300  1
  C  C206  1  0.35536800  0.09526100  0.56197800  1
  C  C207  1  0.40541300  0.07885400  0.58232500  1
  C  C208  1  0.42565200  0.10231300  0.62925500  1
  C  C209  1  0.39560700  0.13310700  0.66878500  1
  C  C210  1  0.34353100  0.14280900  0.65477200  1
  C  C211  1  0.94144400  0.03846300  0.94725100  1
  C  C212  1  0.30855600  0.17135100  0.69725100  1
  C  C213  1  0.32710300  0.12504100  0.60299400  1
  C  C214  1  0.12704600  0.88021800  0.76283300  1
  C  C215  1  0.17025900  0.88341800  0.80831100  1
  C  C216  1  0.17989200  0.89911000  0.90722300  1
  C  C217  1  0.15616700  0.89197300  0.95956200  1
  C  C218  1  0.18630600  0.89557700  0.00712700  1
  C  C219  1  0.24125900  0.89926400  0.00110300  1
  C  C220  1  0.26571500  0.90747900  0.94940300  1
  C  C221  1  0.23242700  0.90702600  0.90077500  1
  C  C222  1  0.32138100  0.91424600  0.94508300  1
  C  C223  1  0.16472500  0.88464600  0.06197800  1
  C  C224  1  0.11468000  0.90105300  0.08232500  1
  C  C225  1  0.09444200  0.87759400  0.12925500  1
  C  C226  1  0.12448600  0.84680000  0.16878500  1
  C  C227  1  0.17656300  0.83709800  0.15477200  1
  C  C228  1  0.21153700  0.17135100  0.80274900  1
  C  C229  1  0.19299000  0.85486600  0.10299400  1
  C  C230  1  0.86978200  0.35695300  0.51283300  1
  C  C231  1  0.86658200  0.40016600  0.55831100  1
  C  C232  1  0.85089000  0.40979900  0.65722300  1
  C  C233  1  0.85802700  0.38607400  0.70956200  1
  C  C234  1  0.85442300  0.41621300  0.75712700  1
  C  C235  1  0.85073600  0.47116600  0.75110300  1
  C  C236  1  0.84252100  0.49562200  0.69940300  1
  C  C237  1  0.84297400  0.46233400  0.65077500  1
  C  C238  1  0.83575400  0.55128700  0.69508300  1
  C  C239  1  0.86535400  0.39463200  0.81197800  1
  C  C240  1  0.84894700  0.34458700  0.83232500  1
  C  C241  1  0.87240600  0.32434800  0.87925500  1
  C  C242  1  0.90320000  0.35439300  0.91878500  1
  C  C243  1  0.91290200  0.40646900  0.90477200  1
  C  C244  1  0.89513400  0.42289700  0.85299400  1
  C  C245  1  0.65031100  0.62295400  0.01283300  1
  C  C246  1  0.65351200  0.57974100  0.05831100  1
  C  C247  1  0.66920400  0.57010800  0.15722300  1
  C  C248  1  0.66206600  0.59383300  0.20956200  1
  C  C249  1  0.66567100  0.56369400  0.25712700  1
  C  C250  1  0.66935700  0.50874100  0.25110300  1
  C  C251  1  0.67757200  0.48428500  0.19940300  1
  C  C252  1  0.67712000  0.51757300  0.15077500  1
  C  C253  1  0.68433900  0.42861900  0.19508300  1
  C  C254  1  0.71153700  0.30855600  0.69725100  1
  C  C255  1  0.65473900  0.58527500  0.31197800  1
  C  C256  1  0.67114600  0.63532000  0.33232500  1
  C  C257  1  0.64768700  0.65555800  0.37925500  1
  C  C258  1  0.61689300  0.62551400  0.41878500  1
  C  C259  1  0.60719100  0.57343700  0.40477200  1
  C  C260  1  0.62495900  0.55701000  0.35299400  1
  C  C261  1  0.80855600  0.30855600  0.80274900  1
  C  C262  1  0.80855600  0.17135100  0.80274900  1
  C  C263  1  0.71153700  0.17135100  0.69725100  1
  C  C264  1  0.80855600  0.67135100  0.19725100  1
  C  C265  1  0.71153700  0.67135100  0.30274900  1
  C  C266  1  0.71153700  0.80855600  0.30274900  1
  C  C267  1  0.07864900  0.03846300  0.94725100  1
  C  C268  1  0.80855600  0.80855600  0.19725100  1
  C  C269  1  0.44144400  0.44144400  0.55274900  1
  C  C270  1  0.44144400  0.53846300  0.44725100  1
  C  C271  1  0.57864900  0.53846300  0.44725100  1
  C  C272  1  0.57864900  0.44144400  0.55274900  1
  O  O1  1  0.06205600  0.99798900  0.92875800  1
  O  O2  1  0.06205600  0.49798900  0.07124200  1
  O  O3  1  0.06205600  0.55547000  0.00873800  1
  O  O4  1  0.06205600  0.42443700  0.99126200  1
  O  O5  1  0.06205600  0.48191800  0.92875800  1
  O  O6  1  0.95803700  0.42443700  0.99126200  1
  O  O7  1  0.95803700  0.48191800  0.92875800  1
  O  O8  1  0.95803700  0.49798900  0.07124200  1
  O  O9  1  0.95803700  0.55547000  0.00873800  1
  O  O10  1  0.87206900  0.89859800  0.86153900  1
  O  O11  1  0.06205600  0.98191800  0.07124200  1
  O  O12  1  0.06205600  0.92443700  0.00873800  1
  O  O13  1  0.64802400  0.08130900  0.36153900  1
  O  O14  1  0.56205600  0.99798900  0.57124200  1
  O  O15  1  0.35140200  0.60197600  0.11153900  1
  O  O16  1  0.56205600  0.05547000  0.50873800  1
  O  O17  1  0.56205600  0.92443700  0.49126200  1
  O  O18  1  0.16869100  0.37793100  0.61153900  1
  O  O19  1  0.56205600  0.98191800  0.42875800  1
  O  O20  1  0.45803700  0.92443700  0.49126200  1
  O  O21  1  0.64802400  0.89859800  0.63846100  1
  O  O22  1  0.45803700  0.98191800  0.42875800  1
  O  O23  1  0.45803700  0.99798900  0.57124200  1
  O  O24  1  0.87206900  0.08130900  0.13846100  1
  O  O25  1  0.45803700  0.05547000  0.50873800  1
  O  O26  1  0.16869100  0.60197600  0.38846100  1
  O  O27  1  0.95803700  0.98191800  0.07124200  1
  O  O28  1  0.26808200  0.68794400  0.32124200  1
  O  O29  1  0.32556300  0.68794400  0.25873800  1
  O  O30  1  0.35140200  0.37793100  0.88846100  1
  O  O31  1  0.19453000  0.68794400  0.24126200  1
  O  O32  1  0.25201100  0.68794400  0.17875800  1
  O  O33  1  0.14802400  0.08130900  0.13846100  1
  O  O34  1  0.19453000  0.79196300  0.24126200  1
  O  O35  1  0.25201100  0.79196300  0.17875800  1
  O  O36  1  0.37206900  0.89859800  0.63846100  1
  O  O37  1  0.95803700  0.92443700  0.00873800  1
  O  O38  1  0.26808200  0.79196300  0.32124200  1
  O  O39  1  0.32556300  0.79196300  0.25873800  1
  O  O40  1  0.66869100  0.37793100  0.88846100  1
  O  O41  1  0.85140200  0.60197600  0.38846100  1
  O  O42  1  0.25201100  0.29196300  0.82124200  1
  O  O43  1  0.19453000  0.29196300  0.75873800  1
  O  O44  1  0.37206900  0.08130900  0.36153900  1
  O  O45  1  0.32556300  0.29196300  0.74126200  1
  O  O46  1  0.26808200  0.29196300  0.67875800  1
  O  O47  1  0.14802400  0.89859800  0.86153900  1
  O  O48  1  0.32556300  0.18794400  0.74126200  1
  O  O49  1  0.26808200  0.18794400  0.67875800  1
  O  O50  1  0.85140200  0.37793100  0.61153900  1
  O  O51  1  0.25201100  0.18794400  0.82124200  1
  O  O52  1  0.19453000  0.18794400  0.75873800  1
  O  O53  1  0.66869100  0.60197600  0.11153900  1
  O  O54  1  0.75201100  0.29196300  0.67875800  1
  O  O55  1  0.95803700  0.05547000  0.99126200  1
  O  O56  1  0.69453000  0.29196300  0.74126200  1
  O  O57  1  0.82556300  0.29196300  0.75873800  1
  O  O58  1  0.76808200  0.29196300  0.82124200  1
  O  O59  1  0.82556300  0.18794400  0.75873800  1
  O  O60  1  0.76808200  0.18794400  0.82124200  1
  O  O61  1  0.75201100  0.18794400  0.67875800  1
  O  O62  1  0.69453000  0.18794400  0.74126200  1
  O  O63  1  0.95803700  0.99798900  0.92875800  1
  O  O64  1  0.76808200  0.68794400  0.17875800  1
  O  O65  1  0.82556300  0.68794400  0.24126200  1
  O  O66  1  0.69453000  0.68794400  0.25873800  1
  O  O67  1  0.75201100  0.68794400  0.32124200  1
  O  O68  1  0.69453000  0.79196300  0.25873800  1
  O  O69  1  0.75201100  0.79196300  0.32124200  1
  O  O70  1  0.76808200  0.79196300  0.17875800  1
  O  O71  1  0.82556300  0.79196300  0.24126200  1
  O  O72  1  0.45803700  0.48191800  0.57124200  1
  O  O73  1  0.45803700  0.42443700  0.50873800  1
  O  O74  1  0.06205600  0.05547000  0.99126200  1
  O  O75  1  0.45803700  0.55547000  0.49126200  1
  O  O76  1  0.45803700  0.49798900  0.42875800  1
  O  O77  1  0.56205600  0.55547000  0.49126200  1
  O  O78  1  0.56205600  0.49798900  0.42875800  1
  O  O79  1  0.56205600  0.48191800  0.57124200  1
  O  O80  1  0.56205600  0.42443700  0.50873800  1
  F  F1  1  0.68710800  0.96473200  0.93891100  1
  F  F2  1  0.67158800  0.89471300  0.99020700  1
  F  F3  1  0.68241100  0.89206900  0.89703600  1
  F  F4  1  0.83298500  0.01517500  0.43891100  1
  F  F5  1  0.84850500  0.08519400  0.49020700  1
  F  F6  1  0.83768200  0.08783800  0.39703600  1
  F  F7  1  0.28526800  0.41701500  0.18891100  1
  F  F8  1  0.35528700  0.40149500  0.24020700  1
  F  F9  1  0.35793100  0.41231800  0.14703600  1
  F  F10  1  0.23482500  0.56289200  0.68891100  1
  F  F11  1  0.16480600  0.57841200  0.74020700  1
  F  F12  1  0.16216200  0.56758900  0.64703600  1
  F  F13  1  0.83298500  0.96473200  0.56108900  1
  F  F14  1  0.84850500  0.89471300  0.50979300  1
  F  F15  1  0.83768200  0.89206900  0.60296400  1
  F  F16  1  0.68710800  0.01517500  0.06108900  1
  F  F17  1  0.67158800  0.08519400  0.00979300  1
  F  F18  1  0.68241100  0.08783800  0.10296400  1
  F  F19  1  0.23482500  0.41701500  0.31108900  1
  F  F20  1  0.16480600  0.40149500  0.25979300  1
  F  F21  1  0.16216200  0.41231800  0.35296400  1
  F  F22  1  0.28526800  0.56289200  0.81108900  1
  F  F23  1  0.35528700  0.57841200  0.75979300  1
  F  F24  1  0.35793100  0.56758900  0.85296400  1
  F  F25  1  0.33298500  0.01517500  0.06108900  1
  F  F26  1  0.34850500  0.08519400  0.00979300  1
  F  F27  1  0.33768200  0.08783800  0.10296400  1
  F  F28  1  0.18710800  0.96473200  0.56108900  1
  F  F29  1  0.17158800  0.89471300  0.50979300  1
  F  F30  1  0.18241100  0.89206900  0.60296400  1
  F  F31  1  0.73482500  0.56289200  0.81108900  1
  F  F32  1  0.66480600  0.57841200  0.75979300  1
  F  F33  1  0.66216200  0.56758900  0.85296400  1
  F  F34  1  0.78526800  0.41701500  0.31108900  1
  F  F35  1  0.85528700  0.40149500  0.25979300  1
  F  F36  1  0.85793100  0.41231800  0.35296400  1
  F  F37  1  0.18710800  0.01517500  0.43891100  1
  F  F38  1  0.17158800  0.08519400  0.49020700  1
  F  F39  1  0.18241100  0.08783800  0.39703600  1
  F  F40  1  0.33298500  0.96473200  0.93891100  1
  F  F41  1  0.34850500  0.89471300  0.99020700  1
  F  F42  1  0.33768200  0.89206900  0.89703600  1
  F  F43  1  0.78526800  0.56289200  0.68891100  1
  F  F44  1  0.85528700  0.57841200  0.74020700  1
  F  F45  1  0.85793100  0.56758900  0.64703600  1
  F  F46  1  0.73482500  0.41701500  0.18891100  1
  F  F47  1  0.66480600  0.40149500  0.24020700  1
  F  F48  1  0.66216200  0.41231800  0.14703600  1
