# generated using pymatgen
data_CuH7C19O5F3
_symmetry_space_group_name_H-M   'P 1'
_cell_length_a   31.19880000
_cell_length_b   31.19880000
_cell_length_c   29.10960000
_cell_angle_alpha   90.00000000
_cell_angle_beta   90.00000000
_cell_angle_gamma   90.00000000
_symmetry_Int_Tables_number   1
_chemical_formula_structural   CuH7C19O5F3
_chemical_formula_sum   'Cu16 H112 C304 O80 F48'
_cell_volume   28334.26933907
_cell_formula_units_Z   16
loop_
 _symmetry_equiv_pos_site_id
 _symmetry_equiv_pos_as_xyz
  1  'x, y, z'
loop_
 _atom_site_type_symbol
 _atom_site_label
 _atom_site_symmetry_multiplicity
 _atom_site_fract_x
 _atom_site_fract_y
 _atom_site_fract_z
 _atom_site_occupancy
  Cu  Cu1  1  0.00837100  0.96153900  0.96775000  1
  Cu  Cu2  1  0.00837100  0.02172000  0.03225000  1
  Cu  Cu3  1  0.50837100  0.02172000  0.46775000  1
  Cu  Cu4  1  0.50837100  0.96153900  0.53225000  1
  Cu  Cu5  1  0.28846100  0.74162900  0.21775000  1
  Cu  Cu6  1  0.22828000  0.74162900  0.28225000  1
  Cu  Cu7  1  0.22828000  0.24162900  0.71775000  1
  Cu  Cu8  1  0.28846100  0.24162900  0.78225000  1
  Cu  Cu9  1  0.72828000  0.24162900  0.78225000  1
  Cu  Cu10  1  0.78846100  0.24162900  0.71775000  1
  Cu  Cu11  1  0.78846100  0.74162900  0.28225000  1
  Cu  Cu12  1  0.72828000  0.74162900  0.21775000  1
  Cu  Cu13  1  0.50837100  0.46153900  0.46775000  1
  Cu  Cu14  1  0.50837100  0.52172000  0.53225000  1
  Cu  Cu15  1  0.00837100  0.52172000  0.96775000  1
  Cu  Cu16  1  0.00837100  0.46153900  0.03225000  1
  H  H1  1  0.85365800  0.86944000  0.20952500  1
  H  H2  1  0.82510000  0.76518200  0.11655000  1
  H  H3  1  0.86062700  0.80453000  0.05723000  1
  H  H4  1  0.90160300  0.92268000  0.18884200  1
  H  H5  1  0.94636100  0.95901000  0.13065800  1
  H  H6  1  0.92946400  0.82473300  0.93635400  1
  H  H7  1  0.81697200  0.86502200  0.01108500  1
  H  H8  1  0.66308300  0.11381800  0.70952500  1
  H  H9  1  0.69164100  0.21807700  0.61655000  1
  H  H10  1  0.65611500  0.17872800  0.55723000  1
  H  H11  1  0.61513900  0.06057900  0.68884200  1
  H  H12  1  0.57038100  0.02424800  0.63065800  1
  H  H13  1  0.58727700  0.15852500  0.43635400  1
  H  H14  1  0.69977000  0.11823600  0.51108500  1
  H  H15  1  0.38056000  0.58691700  0.45952500  1
  H  H16  1  0.48481800  0.55835900  0.36655000  1
  H  H17  1  0.44547000  0.59388500  0.30723000  1
  H  H18  1  0.32732000  0.63486100  0.43884200  1
  H  H19  1  0.29099000  0.67961900  0.38065800  1
  H  H20  1  0.42526700  0.66272300  0.18635400  1
  H  H21  1  0.38497800  0.55023000  0.26108500  1
  H  H22  1  0.13618200  0.39634200  0.95952500  1
  H  H23  1  0.03192300  0.42490000  0.86655000  1
  H  H24  1  0.07127200  0.38937300  0.80723000  1
  H  H25  1  0.18942100  0.34839700  0.93884200  1
  H  H26  1  0.22575200  0.30363900  0.88065800  1
  H  H27  1  0.09147500  0.32053600  0.68635400  1
  H  H28  1  0.13176400  0.43302800  0.76108500  1
  H  H29  1  0.66308300  0.86944000  0.29047500  1
  H  H30  1  0.69164100  0.76518200  0.38345000  1
  H  H31  1  0.65611500  0.80453000  0.44277000  1
  H  H32  1  0.61513900  0.92268000  0.31115800  1
  H  H33  1  0.57038100  0.95901000  0.36934200  1
  H  H34  1  0.58727700  0.82473300  0.56364600  1
  H  H35  1  0.69977000  0.86502200  0.48891500  1
  H  H36  1  0.85365800  0.11381800  0.79047500  1
  H  H37  1  0.82510000  0.21807700  0.88345000  1
  H  H38  1  0.86062700  0.17872800  0.94277000  1
  H  H39  1  0.90160300  0.06057900  0.81115800  1
  H  H40  1  0.94636100  0.02424800  0.86934200  1
  H  H41  1  0.92946400  0.15852500  0.06364600  1
  H  H42  1  0.81697200  0.11823600  0.98891500  1
  H  H43  1  0.13618200  0.58691700  0.04047500  1
  H  H44  1  0.03192300  0.55835900  0.13345000  1
  H  H45  1  0.07127200  0.59388500  0.19277000  1
  H  H46  1  0.18942100  0.63486100  0.06115800  1
  H  H47  1  0.22575200  0.67961900  0.11934200  1
  H  H48  1  0.09147500  0.66272300  0.31364600  1
  H  H49  1  0.13176400  0.55023000  0.23891500  1
  H  H50  1  0.38056000  0.39634200  0.54047500  1
  H  H51  1  0.48481800  0.42490000  0.63345000  1
  H  H52  1  0.44547000  0.38937300  0.69277000  1
  H  H53  1  0.32732000  0.34839700  0.56115800  1
  H  H54  1  0.29099000  0.30363900  0.61934200  1
  H  H55  1  0.42526700  0.32053600  0.81364600  1
  H  H56  1  0.38497800  0.43302800  0.73891500  1
  H  H57  1  0.16308300  0.11381800  0.79047500  1
  H  H58  1  0.19164100  0.21807700  0.88345000  1
  H  H59  1  0.15611500  0.17872800  0.94277000  1
  H  H60  1  0.11513900  0.06057900  0.81115800  1
  H  H61  1  0.07038100  0.02424800  0.86934200  1
  H  H62  1  0.08727700  0.15852500  0.06364600  1
  H  H63  1  0.19977000  0.11823600  0.98891500  1
  H  H64  1  0.35365800  0.86944000  0.29047500  1
  H  H65  1  0.32510000  0.76518200  0.38345000  1
  H  H66  1  0.36062700  0.80453000  0.44277000  1
  H  H67  1  0.40160300  0.92268000  0.31115800  1
  H  H68  1  0.44636100  0.95901000  0.36934200  1
  H  H69  1  0.42946400  0.82473300  0.56364600  1
  H  H70  1  0.31697200  0.86502200  0.48891500  1
  H  H71  1  0.63618200  0.39634200  0.54047500  1
  H  H72  1  0.53192300  0.42490000  0.63345000  1
  H  H73  1  0.57127200  0.38937300  0.69277000  1
  H  H74  1  0.68942100  0.34839700  0.56115800  1
  H  H75  1  0.72575200  0.30363900  0.61934200  1
  H  H76  1  0.59147500  0.32053600  0.81364600  1
  H  H77  1  0.63176400  0.43302800  0.73891500  1
  H  H78  1  0.88056000  0.58691700  0.04047500  1
  H  H79  1  0.98481800  0.55835900  0.13345000  1
  H  H80  1  0.94547000  0.59388500  0.19277000  1
  H  H81  1  0.82732000  0.63486100  0.06115800  1
  H  H82  1  0.79099000  0.67961900  0.11934200  1
  H  H83  1  0.92526700  0.66272300  0.31364600  1
  H  H84  1  0.88497800  0.55023000  0.23891500  1
  H  H85  1  0.35365800  0.11381800  0.70952500  1
  H  H86  1  0.32510000  0.21807700  0.61655000  1
  H  H87  1  0.36062700  0.17872800  0.55723000  1
  H  H88  1  0.40160300  0.06057900  0.68884200  1
  H  H89  1  0.44636100  0.02424800  0.63065800  1
  H  H90  1  0.42946400  0.15852500  0.43635400  1
  H  H91  1  0.31697200  0.11823600  0.51108500  1
  H  H92  1  0.16308300  0.86944000  0.20952500  1
  H  H93  1  0.19164100  0.76518200  0.11655000  1
  H  H94  1  0.15611500  0.80453000  0.05723000  1
  H  H95  1  0.11513900  0.92268000  0.18884200  1
  H  H96  1  0.07038100  0.95901000  0.13065800  1
  H  H97  1  0.08727700  0.82473300  0.93635400  1
  H  H98  1  0.19977000  0.86502200  0.01108500  1
  H  H99  1  0.88056000  0.39634200  0.95952500  1
  H  H100  1  0.98481800  0.42490000  0.86655000  1
  H  H101  1  0.94547000  0.38937300  0.80723000  1
  H  H102  1  0.82732000  0.34839700  0.93884200  1
  H  H103  1  0.79099000  0.30363900  0.88065800  1
  H  H104  1  0.92526700  0.32053600  0.68635400  1
  H  H105  1  0.88497800  0.43302800  0.76108500  1
  H  H106  1  0.63618200  0.58691700  0.45952500  1
  H  H107  1  0.53192300  0.55835900  0.36655000  1
  H  H108  1  0.57127200  0.59388500  0.30723000  1
  H  H109  1  0.68942100  0.63486100  0.43884200  1
  H  H110  1  0.72575200  0.67961900  0.38065800  1
  H  H111  1  0.59147500  0.66272300  0.18635400  1
  H  H112  1  0.63176400  0.55023000  0.26108500  1
  C  C1  1  0.06553000  0.53204700  0.04331800  1
  C  C2  1  0.06553000  0.45121200  0.95668200  1
  C  C3  1  0.95121200  0.45121200  0.95668200  1
  C  C4  1  0.95121200  0.53204700  0.04331800  1
  C  C5  1  0.06553000  0.95121200  0.04331800  1
  C  C6  1  0.90292000  0.88442500  0.06101800  1
  C  C7  1  0.87898500  0.86081600  0.09428300  1
  C  C8  1  0.87510100  0.87626000  0.13977000  1
  C  C9  1  0.85066500  0.85598700  0.17573300  1
  C  C10  1  0.82985600  0.81714200  0.16772500  1
  C  C11  1  0.83352500  0.79851200  0.12365200  1
  C  C12  1  0.85718100  0.82010100  0.09046100  1
  C  C13  1  0.90080800  0.91177700  0.15241200  1
  C  C14  1  0.92799400  0.93267300  0.12084700  1
  C  C15  1  0.92750500  0.91973100  0.07496000  1
  C  C16  1  0.90936900  0.86918200  0.01159100  1
  C  C17  1  0.87922100  0.84972000  0.97475500  1
  C  C18  1  0.89551900  0.82885300  0.93718000  1
  C  C19  1  0.87087800  0.81490900  0.90005500  1
  C  C20  1  0.82675800  0.81661300  0.90497400  1
  C  C21  1  0.80767200  0.83852000  0.94194100  1
  C  C22  1  0.83421500  0.85464800  0.97923000  1
  C  C23  1  0.61382100  0.09883400  0.56101800  1
  C  C24  1  0.63775700  0.12244300  0.59428300  1
  C  C25  1  0.64164000  0.10699800  0.63977000  1
  C  C26  1  0.66607600  0.12727200  0.67573300  1
  C  C27  1  0.68688600  0.16611700  0.66772500  1
  C  C28  1  0.68321600  0.18474700  0.62365200  1
  C  C29  1  0.65956100  0.16315800  0.59046100  1
  C  C30  1  0.61593400  0.07148200  0.65241200  1
  C  C31  1  0.58874800  0.05058500  0.62084700  1
  C  C32  1  0.58923700  0.06352700  0.57496000  1
  C  C33  1  0.60737200  0.11407700  0.51159100  1
  C  C34  1  0.63752100  0.13353800  0.47475500  1
  C  C35  1  0.62122300  0.15440600  0.43718000  1
  C  C36  1  0.56553000  0.03204700  0.54331800  1
  C  C37  1  0.64586300  0.16835000  0.40005500  1
  C  C38  1  0.68998300  0.16664500  0.40497400  1
  C  C39  1  0.70907000  0.14473900  0.44194100  1
  C  C40  1  0.68252600  0.12861100  0.47923000  1
  C  C41  1  0.36557500  0.63617900  0.31101800  1
  C  C42  1  0.38918400  0.61224300  0.34428300  1
  C  C43  1  0.37374000  0.60836000  0.38977000  1
  C  C44  1  0.39401300  0.58392400  0.42573300  1
  C  C45  1  0.43285800  0.56311400  0.41772500  1
  C  C46  1  0.45148800  0.56678400  0.37365200  1
  C  C47  1  0.42989900  0.59043900  0.34046100  1
  C  C48  1  0.33822300  0.63406600  0.40241200  1
  C  C49  1  0.31732700  0.66125200  0.37084700  1
  C  C50  1  0.33026900  0.66076300  0.32496000  1
  C  C51  1  0.38081800  0.64262800  0.26159100  1
  C  C52  1  0.40028000  0.61247900  0.22475500  1
  C  C53  1  0.42114700  0.62877700  0.18718000  1
  C  C54  1  0.43509100  0.60413700  0.15005500  1
  C  C55  1  0.43338700  0.56001700  0.15497400  1
  C  C56  1  0.56553000  0.95121200  0.45668200  1
  C  C57  1  0.41148000  0.54093000  0.19194100  1
  C  C58  1  0.39535200  0.56747400  0.22923000  1
  C  C59  1  0.15116600  0.34708000  0.81101800  1
  C  C60  1  0.12755700  0.37101500  0.84428300  1
  C  C61  1  0.14300200  0.37489900  0.88977000  1
  C  C62  1  0.12272800  0.39933500  0.92573300  1
  C  C63  1  0.95121200  0.95121200  0.04331800  1
  C  C64  1  0.08388300  0.42014400  0.91772500  1
  C  C65  1  0.06525300  0.41647500  0.87365200  1
  C  C66  1  0.08684200  0.39281900  0.84046100  1
  C  C67  1  0.17851800  0.34919200  0.90241200  1
  C  C68  1  0.19941500  0.32200600  0.87084700  1
  C  C69  1  0.18647300  0.32249500  0.82496000  1
  C  C70  1  0.13592300  0.34063100  0.76159100  1
  C  C71  1  0.11646200  0.37077900  0.72475500  1
  C  C72  1  0.09559400  0.35448100  0.68718000  1
  C  C73  1  0.08165000  0.37912200  0.65005500  1
  C  C74  1  0.08335500  0.42324200  0.65497400  1
  C  C75  1  0.10526100  0.44232800  0.69194100  1
  C  C76  1  0.12138900  0.41578500  0.72923000  1
  C  C77  1  0.45121200  0.95121200  0.45668200  1
  C  C78  1  0.61382100  0.88442500  0.43898200  1
  C  C79  1  0.63775700  0.86081600  0.40571700  1
  C  C80  1  0.64164000  0.87626000  0.36023000  1
  C  C81  1  0.66607600  0.85598700  0.32426700  1
  C  C82  1  0.68688600  0.81714200  0.33227500  1
  C  C83  1  0.68321600  0.79851200  0.37634800  1
  C  C84  1  0.65956100  0.82010100  0.40953900  1
  C  C85  1  0.61593400  0.91177700  0.34758800  1
  C  C86  1  0.58874800  0.93267300  0.37915300  1
  C  C87  1  0.58923700  0.91973100  0.42504000  1
  C  C88  1  0.60737200  0.86918200  0.48840900  1
  C  C89  1  0.63752100  0.84972000  0.52524500  1
  C  C90  1  0.62122300  0.82885300  0.56282000  1
  C  C91  1  0.64586300  0.81490900  0.59994500  1
  C  C92  1  0.68998300  0.81661300  0.59502600  1
  C  C93  1  0.70907000  0.83852000  0.55805900  1
  C  C94  1  0.68252600  0.85464800  0.52077000  1
  C  C95  1  0.45121200  0.03204700  0.54331800  1
  C  C96  1  0.90292000  0.09883400  0.93898200  1
  C  C97  1  0.87898500  0.12244300  0.90571700  1
  C  C98  1  0.87510100  0.10699800  0.86023000  1
  C  C99  1  0.85066500  0.12727200  0.82426700  1
  C  C100  1  0.82985600  0.16611700  0.83227500  1
  C  C101  1  0.83352500  0.18474700  0.87634800  1
  C  C102  1  0.85718100  0.16315800  0.90953900  1
  C  C103  1  0.90080800  0.07148200  0.84758800  1
  C  C104  1  0.92799400  0.05058500  0.87915300  1
  C  C105  1  0.92750500  0.06352700  0.92504000  1
  C  C106  1  0.90936900  0.11407700  0.98840900  1
  C  C107  1  0.87922100  0.13353800  0.02524500  1
  C  C108  1  0.89551900  0.15440600  0.06282000  1
  C  C109  1  0.87087800  0.16835000  0.09994500  1
  C  C110  1  0.82675800  0.16664500  0.09502600  1
  C  C111  1  0.80767200  0.14473900  0.05805900  1
  C  C112  1  0.83421500  0.12861100  0.02077000  1
  C  C113  1  0.15116600  0.63617900  0.18898200  1
  C  C114  1  0.12755700  0.61224300  0.15571700  1
  C  C115  1  0.14300200  0.60836000  0.11023000  1
  C  C116  1  0.12272800  0.58392400  0.07426700  1
  C  C117  1  0.08388300  0.56311400  0.08227500  1
  C  C118  1  0.06525300  0.56678400  0.12634800  1
  C  C119  1  0.08684200  0.59043900  0.15953900  1
  C  C120  1  0.17851800  0.63406600  0.09758800  1
  C  C121  1  0.19941500  0.66125200  0.12915300  1
  C  C122  1  0.18647300  0.66076300  0.17504000  1
  C  C123  1  0.13592300  0.64262800  0.23840900  1
  C  C124  1  0.11646200  0.61247900  0.27524500  1
  C  C125  1  0.09559400  0.62877700  0.31282000  1
  C  C126  1  0.29878800  0.68447000  0.29331800  1
  C  C127  1  0.08165000  0.60413700  0.34994500  1
  C  C128  1  0.08335500  0.56001700  0.34502600  1
  C  C129  1  0.10526100  0.54093000  0.30805900  1
  C  C130  1  0.12138900  0.56747400  0.27077000  1
  C  C131  1  0.36557500  0.34708000  0.68898200  1
  C  C132  1  0.38918400  0.37101500  0.65571700  1
  C  C133  1  0.37374000  0.37489900  0.61023000  1
  C  C134  1  0.39401300  0.39933500  0.57426700  1
  C  C135  1  0.43285800  0.42014400  0.58227500  1
  C  C136  1  0.45148800  0.41647500  0.62634800  1
  C  C137  1  0.42989900  0.39281900  0.65953900  1
  C  C138  1  0.33822300  0.34919200  0.59758800  1
  C  C139  1  0.31732700  0.32200600  0.62915300  1
  C  C140  1  0.33026900  0.32249500  0.67504000  1
  C  C141  1  0.38081800  0.34063100  0.73840900  1
  C  C142  1  0.40028000  0.37077900  0.77524500  1
  C  C143  1  0.42114700  0.35448100  0.81282000  1
  C  C144  1  0.43509100  0.37912200  0.84994500  1
  C  C145  1  0.43338700  0.42324200  0.84502600  1
  C  C146  1  0.21795300  0.68447000  0.20668200  1
  C  C147  1  0.41148000  0.44232800  0.80805900  1
  C  C148  1  0.39535200  0.41578500  0.77077000  1
  C  C149  1  0.11382100  0.09883400  0.93898200  1
  C  C150  1  0.13775700  0.12244300  0.90571700  1
  C  C151  1  0.14164000  0.10699800  0.86023000  1
  C  C152  1  0.16607600  0.12727200  0.82426700  1
  C  C153  1  0.18688600  0.16611700  0.83227500  1
  C  C154  1  0.18321600  0.18474700  0.87634800  1
  C  C155  1  0.15956100  0.16315800  0.90953900  1
  C  C156  1  0.11593400  0.07148200  0.84758800  1
  C  C157  1  0.08874800  0.05058500  0.87915300  1
  C  C158  1  0.08923700  0.06352700  0.92504000  1
  C  C159  1  0.10737200  0.11407700  0.98840900  1
  C  C160  1  0.13752100  0.13353800  0.02524500  1
  C  C161  1  0.12122300  0.15440600  0.06282000  1
  C  C162  1  0.14586300  0.16835000  0.09994500  1
  C  C163  1  0.18998300  0.16664500  0.09502600  1
  C  C164  1  0.20907000  0.14473900  0.05805900  1
  C  C165  1  0.18252600  0.12861100  0.02077000  1
  C  C166  1  0.21795300  0.79878800  0.20668200  1
  C  C167  1  0.40292000  0.88442500  0.43898200  1
  C  C168  1  0.37898500  0.86081600  0.40571700  1
  C  C169  1  0.37510100  0.87626000  0.36023000  1
  C  C170  1  0.35066500  0.85598700  0.32426700  1
  C  C171  1  0.32985600  0.81714200  0.33227500  1
  C  C172  1  0.33352500  0.79851200  0.37634800  1
  C  C173  1  0.35718100  0.82010100  0.40953900  1
  C  C174  1  0.40080800  0.91177700  0.34758800  1
  C  C175  1  0.42799400  0.93267300  0.37915300  1
  C  C176  1  0.42750500  0.91973100  0.42504000  1
  C  C177  1  0.40936900  0.86918200  0.48840900  1
  C  C178  1  0.37922100  0.84972000  0.52524500  1
  C  C179  1  0.39551900  0.82885300  0.56282000  1
  C  C180  1  0.37087800  0.81490900  0.59994500  1
  C  C181  1  0.32675800  0.81661300  0.59502600  1
  C  C182  1  0.30767200  0.83852000  0.55805900  1
  C  C183  1  0.33421500  0.85464800  0.52077000  1
  C  C184  1  0.29878800  0.79878800  0.29331800  1
  C  C185  1  0.65116600  0.34708000  0.68898200  1
  C  C186  1  0.62755700  0.37101500  0.65571700  1
  C  C187  1  0.64300200  0.37489900  0.61023000  1
  C  C188  1  0.62272800  0.39933500  0.57426700  1
  C  C189  1  0.58388300  0.42014400  0.58227500  1
  C  C190  1  0.56525300  0.41647500  0.62634800  1
  C  C191  1  0.58684200  0.39281900  0.65953900  1
  C  C192  1  0.67851800  0.34919200  0.59758800  1
  C  C193  1  0.69941500  0.32200600  0.62915300  1
  C  C194  1  0.68647300  0.32249500  0.67504000  1
  C  C195  1  0.63592300  0.34063100  0.73840900  1
  C  C196  1  0.61646200  0.37077900  0.77524500  1
  C  C197  1  0.59559400  0.35448100  0.81282000  1
  C  C198  1  0.58165000  0.37912200  0.84994500  1
  C  C199  1  0.58335500  0.42324200  0.84502600  1
  C  C200  1  0.60526100  0.44232800  0.80805900  1
  C  C201  1  0.62138900  0.41578500  0.77077000  1
  C  C202  1  0.86557500  0.63617900  0.18898200  1
  C  C203  1  0.88918400  0.61224300  0.15571700  1
  C  C204  1  0.87374000  0.60836000  0.11023000  1
  C  C205  1  0.89401300  0.58392400  0.07426700  1
  C  C206  1  0.93285800  0.56311400  0.08227500  1
  C  C207  1  0.95148800  0.56678400  0.12634800  1
  C  C208  1  0.92989900  0.59043900  0.15953900  1
  C  C209  1  0.83822300  0.63406600  0.09758800  1
  C  C210  1  0.81732700  0.66125200  0.12915300  1
  C  C211  1  0.83026900  0.66076300  0.17504000  1
  C  C212  1  0.88081800  0.64262800  0.23840900  1
  C  C213  1  0.90028000  0.61247900  0.27524500  1
  C  C214  1  0.92114700  0.62877700  0.31282000  1
  C  C215  1  0.21795300  0.29878800  0.79331800  1
  C  C216  1  0.93509100  0.60413700  0.34994500  1
  C  C217  1  0.93338700  0.56001700  0.34502600  1
  C  C218  1  0.91148000  0.54093000  0.30805900  1
  C  C219  1  0.89535200  0.56747400  0.27077000  1
  C  C220  1  0.40292000  0.09883400  0.56101800  1
  C  C221  1  0.37898500  0.12244300  0.59428300  1
  C  C222  1  0.37510100  0.10699800  0.63977000  1
  C  C223  1  0.35066500  0.12727200  0.67573300  1
  C  C224  1  0.32985600  0.16611700  0.66772500  1
  C  C225  1  0.33352500  0.18474700  0.62365200  1
  C  C226  1  0.35718100  0.16315800  0.59046100  1
  C  C227  1  0.40080800  0.07148200  0.65241200  1
  C  C228  1  0.42799400  0.05058500  0.62084700  1
  C  C229  1  0.42750500  0.06352700  0.57496000  1
  C  C230  1  0.40936900  0.11407700  0.51159100  1
  C  C231  1  0.37922100  0.13353800  0.47475500  1
  C  C232  1  0.39551900  0.15440600  0.43718000  1
  C  C233  1  0.37087800  0.16835000  0.40005500  1
  C  C234  1  0.32675800  0.16664500  0.40497400  1
  C  C235  1  0.29878800  0.29878800  0.70668200  1
  C  C236  1  0.30767200  0.14473900  0.44194100  1
  C  C237  1  0.33421500  0.12861100  0.47923000  1
  C  C238  1  0.11382100  0.88442500  0.06101800  1
  C  C239  1  0.13775700  0.86081600  0.09428300  1
  C  C240  1  0.14164000  0.87626000  0.13977000  1
  C  C241  1  0.16607600  0.85598700  0.17573300  1
  C  C242  1  0.18688600  0.81714200  0.16772500  1
  C  C243  1  0.18321600  0.79851200  0.12365200  1
  C  C244  1  0.15956100  0.82010100  0.09046100  1
  C  C245  1  0.11593400  0.91177700  0.15241200  1
  C  C246  1  0.08874800  0.93267300  0.12084700  1
  C  C247  1  0.08923700  0.91973100  0.07496000  1
  C  C248  1  0.10737200  0.86918200  0.01159100  1
  C  C249  1  0.13752100  0.84972000  0.97475500  1
  C  C250  1  0.12122300  0.82885300  0.93718000  1
  C  C251  1  0.14586300  0.81490900  0.90005500  1
  C  C252  1  0.18998300  0.81661300  0.90497400  1
  C  C253  1  0.20907000  0.83852000  0.94194100  1
  C  C254  1  0.18252600  0.85464800  0.97923000  1
  C  C255  1  0.95121200  0.03204700  0.95668200  1
  C  C256  1  0.29878800  0.18447000  0.70668200  1
  C  C257  1  0.86557500  0.34708000  0.81101800  1
  C  C258  1  0.88918400  0.37101500  0.84428300  1
  C  C259  1  0.87374000  0.37489900  0.88977000  1
  C  C260  1  0.89401300  0.39933500  0.92573300  1
  C  C261  1  0.93285800  0.42014400  0.91772500  1
  C  C262  1  0.95148800  0.41647500  0.87365200  1
  C  C263  1  0.92989900  0.39281900  0.84046100  1
  C  C264  1  0.83822300  0.34919200  0.90241200  1
  C  C265  1  0.81732700  0.32200600  0.87084700  1
  C  C266  1  0.83026900  0.32249500  0.82496000  1
  C  C267  1  0.88081800  0.34063100  0.76159100  1
  C  C268  1  0.90028000  0.37077900  0.72475500  1
  C  C269  1  0.92114700  0.35448100  0.68718000  1
  C  C270  1  0.93509100  0.37912200  0.65005500  1
  C  C271  1  0.93338700  0.42324200  0.65497400  1
  C  C272  1  0.91148000  0.44232800  0.69194100  1
  C  C273  1  0.89535200  0.41578500  0.72923000  1
  C  C274  1  0.21795300  0.18447000  0.79331800  1
  C  C275  1  0.65116600  0.63617900  0.31101800  1
  C  C276  1  0.62755700  0.61224300  0.34428300  1
  C  C277  1  0.64300200  0.60836000  0.38977000  1
  C  C278  1  0.62272800  0.58392400  0.42573300  1
  C  C279  1  0.58388300  0.56311400  0.41772500  1
  C  C280  1  0.56525300  0.56678400  0.37365200  1
  C  C281  1  0.58684200  0.59043900  0.34046100  1
  C  C282  1  0.67851800  0.63406600  0.40241200  1
  C  C283  1  0.69941500  0.66125200  0.37084700  1
  C  C284  1  0.68647300  0.66076300  0.32496000  1
  C  C285  1  0.63592300  0.64262800  0.26159100  1
  C  C286  1  0.61646200  0.61247900  0.22475500  1
  C  C287  1  0.59559400  0.62877700  0.18718000  1
  C  C288  1  0.58165000  0.60413700  0.15005500  1
  C  C289  1  0.58335500  0.56001700  0.15497400  1
  C  C290  1  0.60526100  0.54093000  0.19194100  1
  C  C291  1  0.62138900  0.56747400  0.22923000  1
  C  C292  1  0.71795300  0.29878800  0.70668200  1
  C  C293  1  0.79878800  0.29878800  0.79331800  1
  C  C294  1  0.79878800  0.18447000  0.79331800  1
  C  C295  1  0.71795300  0.18447000  0.70668200  1
  C  C296  1  0.79878800  0.68447000  0.20668200  1
  C  C297  1  0.71795300  0.68447000  0.29331800  1
  C  C298  1  0.71795300  0.79878800  0.29331800  1
  C  C299  1  0.06553000  0.03204700  0.95668200  1
  C  C300  1  0.79878800  0.79878800  0.20668200  1
  C  C301  1  0.45121200  0.45121200  0.54331800  1
  C  C302  1  0.45121200  0.53204700  0.45668200  1
  C  C303  1  0.56553000  0.53204700  0.45668200  1
  C  C304  1  0.56553000  0.45121200  0.54331800  1
  O  O1  1  0.05170400  0.99832500  0.94149400  1
  O  O2  1  0.05170400  0.49832500  0.05850600  1
  O  O3  1  0.05170400  0.54621700  0.00717600  1
  O  O4  1  0.05170400  0.43704100  0.99282400  1
  O  O5  1  0.05170400  0.48493400  0.94149400  1
  O  O6  1  0.96503700  0.43704100  0.99282400  1
  O  O7  1  0.96503700  0.48493400  0.94149400  1
  O  O8  1  0.96503700  0.49832500  0.05850600  1
  O  O9  1  0.96503700  0.54621700  0.00717600  1
  O  O10  1  0.05170400  0.98493400  0.05850600  1
  O  O11  1  0.94700300  0.87042700  0.99987900  1
  O  O12  1  0.05170400  0.93704100  0.00717600  1
  O  O13  1  0.56973900  0.11283200  0.49987900  1
  O  O14  1  0.55170400  0.99832500  0.55850600  1
  O  O15  1  0.55170400  0.04621700  0.50717600  1
  O  O16  1  0.37957300  0.68026100  0.24987900  1
  O  O17  1  0.55170400  0.93704100  0.49282400  1
  O  O18  1  0.55170400  0.98493400  0.44149400  1
  O  O19  1  0.13716800  0.30299700  0.74987900  1
  O  O20  1  0.46503700  0.93704100  0.49282400  1
  O  O21  1  0.46503700  0.98493400  0.44149400  1
  O  O22  1  0.56973900  0.87042700  0.50012100  1
  O  O23  1  0.46503700  0.99832500  0.55850600  1
  O  O24  1  0.94700300  0.11283200  0.00012100  1
  O  O25  1  0.46503700  0.04621700  0.50717600  1
  O  O26  1  0.13716800  0.68026100  0.25012100  1
  O  O27  1  0.96503700  0.98493400  0.05850600  1
  O  O28  1  0.26506600  0.69829600  0.30850600  1
  O  O29  1  0.31295900  0.69829600  0.25717600  1
  O  O30  1  0.37957300  0.30299700  0.75012100  1
  O  O31  1  0.20378300  0.69829600  0.24282400  1
  O  O32  1  0.25167500  0.69829600  0.19149400  1
  O  O33  1  0.06973900  0.11283200  0.00012100  1
  O  O34  1  0.20378300  0.78496300  0.24282400  1
  O  O35  1  0.25167500  0.78496300  0.19149400  1
  O  O36  1  0.44700300  0.87042700  0.50012100  1
  O  O37  1  0.96503700  0.93704100  0.00717600  1
  O  O38  1  0.26506600  0.78496300  0.30850600  1
  O  O39  1  0.63716800  0.30299700  0.75012100  1
  O  O40  1  0.31295900  0.78496300  0.25717600  1
  O  O41  1  0.87957300  0.68026100  0.25012100  1
  O  O42  1  0.25167500  0.28496300  0.80850600  1
  O  O43  1  0.20378300  0.28496300  0.75717600  1
  O  O44  1  0.44700300  0.11283200  0.49987900  1
  O  O45  1  0.31295900  0.28496300  0.74282400  1
  O  O46  1  0.26506600  0.28496300  0.69149400  1
  O  O47  1  0.06973900  0.87042700  0.99987900  1
  O  O48  1  0.31295900  0.19829600  0.74282400  1
  O  O49  1  0.26506600  0.19829600  0.69149400  1
  O  O50  1  0.87957300  0.30299700  0.74987900  1
  O  O51  1  0.25167500  0.19829600  0.80850600  1
  O  O52  1  0.63716800  0.68026100  0.24987900  1
  O  O53  1  0.20378300  0.19829600  0.75717600  1
  O  O54  1  0.75167500  0.28496300  0.69149400  1
  O  O55  1  0.96503700  0.04621700  0.99282400  1
  O  O56  1  0.70378300  0.28496300  0.74282400  1
  O  O57  1  0.81295900  0.28496300  0.75717600  1
  O  O58  1  0.76506600  0.28496300  0.80850600  1
  O  O59  1  0.81295900  0.19829600  0.75717600  1
  O  O60  1  0.76506600  0.19829600  0.80850600  1
  O  O61  1  0.75167500  0.19829600  0.69149400  1
  O  O62  1  0.70378300  0.19829600  0.74282400  1
  O  O63  1  0.96503700  0.99832500  0.94149400  1
  O  O64  1  0.76506600  0.69829600  0.19149400  1
  O  O65  1  0.81295900  0.69829600  0.24282400  1
  O  O66  1  0.70378300  0.69829600  0.25717600  1
  O  O67  1  0.75167500  0.69829600  0.30850600  1
  O  O68  1  0.70378300  0.78496300  0.25717600  1
  O  O69  1  0.75167500  0.78496300  0.30850600  1
  O  O70  1  0.76506600  0.78496300  0.19149400  1
  O  O71  1  0.81295900  0.78496300  0.24282400  1
  O  O72  1  0.46503700  0.48493400  0.55850600  1
  O  O73  1  0.46503700  0.43704100  0.50717600  1
  O  O74  1  0.05170400  0.04621700  0.99282400  1
  O  O75  1  0.46503700  0.54621700  0.49282400  1
  O  O76  1  0.46503700  0.49832500  0.44149400  1
  O  O77  1  0.55170400  0.54621700  0.49282400  1
  O  O78  1  0.55170400  0.49832500  0.44149400  1
  O  O79  1  0.55170400  0.48493400  0.55850600  1
  O  O80  1  0.55170400  0.43704100  0.50717600  1
  F  F1  1  0.88968400  0.79532400  0.86391700  1
  F  F2  1  0.76616200  0.84043200  0.94693700  1
  F  F3  1  0.80184500  0.80184500  0.87127800  1
  F  F4  1  0.62705800  0.18793500  0.36391700  1
  F  F5  1  0.75057900  0.14282600  0.44693700  1
  F  F6  1  0.71489700  0.18141400  0.37127800  1
  F  F7  1  0.45467600  0.62294200  0.11391700  1
  F  F8  1  0.40956800  0.49942100  0.19693700  1
  F  F9  1  0.44815500  0.53510300  0.12127800  1
  F  F10  1  0.06206500  0.36031600  0.61391700  1
  F  F11  1  0.10717400  0.48383800  0.69693700  1
  F  F12  1  0.06858600  0.44815500  0.62127800  1
  F  F13  1  0.62705800  0.79532400  0.63608300  1
  F  F14  1  0.75057900  0.84043200  0.55306300  1
  F  F15  1  0.71489700  0.80184500  0.62872200  1
  F  F16  1  0.88968400  0.18793500  0.13608300  1
  F  F17  1  0.76616200  0.14282600  0.05306300  1
  F  F18  1  0.80184500  0.18141400  0.12872200  1
  F  F19  1  0.06206500  0.62294200  0.38608300  1
  F  F20  1  0.10717400  0.49942100  0.30306300  1
  F  F21  1  0.06858600  0.53510300  0.37872200  1
  F  F22  1  0.45467600  0.36031600  0.88608300  1
  F  F23  1  0.40956800  0.48383800  0.80306300  1
  F  F24  1  0.44815500  0.44815500  0.87872200  1
  F  F25  1  0.12705800  0.18793500  0.13608300  1
  F  F26  1  0.25057900  0.14282600  0.05306300  1
  F  F27  1  0.21489700  0.18141400  0.12872200  1
  F  F28  1  0.38968400  0.79532400  0.63608300  1
  F  F29  1  0.26616200  0.84043200  0.55306300  1
  F  F30  1  0.30184500  0.80184500  0.62872200  1
  F  F31  1  0.56206500  0.36031600  0.88608300  1
  F  F32  1  0.60717400  0.48383800  0.80306300  1
  F  F33  1  0.56858600  0.44815500  0.87872200  1
  F  F34  1  0.95467600  0.62294200  0.38608300  1
  F  F35  1  0.90956800  0.49942100  0.30306300  1
  F  F36  1  0.94815500  0.53510300  0.37872200  1
  F  F37  1  0.38968400  0.18793500  0.36391700  1
  F  F38  1  0.26616200  0.14282600  0.44693700  1
  F  F39  1  0.30184500  0.18141400  0.37127800  1
  F  F40  1  0.12705800  0.79532400  0.86391700  1
  F  F41  1  0.25057900  0.84043200  0.94693700  1
  F  F42  1  0.21489700  0.80184500  0.87127800  1
  F  F43  1  0.95467600  0.36031600  0.61391700  1
  F  F44  1  0.90956800  0.48383800  0.69693700  1
  F  F45  1  0.94815500  0.44815500  0.62127800  1
  F  F46  1  0.56206500  0.62294200  0.11391700  1
  F  F47  1  0.60717400  0.49942100  0.19693700  1
  F  F48  1  0.56858600  0.53510300  0.12127800  1
