# generated using pymatgen
data_CuH11C14(NO)4
_symmetry_space_group_name_H-M   'P 1'
_cell_length_a   12.81140000
_cell_length_b   9.06520000
_cell_length_c   15.50040000
_cell_angle_alpha   92.88290000
_cell_angle_beta   92.59030000
_cell_angle_gamma   84.52360000
_symmetry_Int_Tables_number   1
_chemical_formula_structural   CuH11C14(NO)4
_chemical_formula_sum   'Cu2 H22 C28 N8 O8'
_cell_volume   1788.22142400
_cell_formula_units_Z   2
loop_
 _symmetry_equiv_pos_site_id
 _symmetry_equiv_pos_as_xyz
  1  'x, y, z'
loop_
 _atom_site_type_symbol
 _atom_site_label
 _atom_site_symmetry_multiplicity
 _atom_site_fract_x
 _atom_site_fract_y
 _atom_site_fract_z
 _atom_site_occupancy
  Cu  Cu1  1  0.19690000  0.04962000  0.15066000  1
  Cu  Cu2  1  0.18564000  0.06570000  0.31994000  1
  H  H1  1  0.77055000  0.13271000  0.45080000  1
  H  H2  1  0.65786000  0.06351000  0.48938000  1
  H  H3  1  0.72765000  0.01628000  0.98145000  1
  H  H4  1  0.60341000  0.08560000  0.01913000  1
  H  H5  1  0.86497000  0.07440000  0.35201000  1
  H  H6  1  0.49874000  0.06786000  0.40172000  1
  H  H7  1  0.51755000  0.04094000  0.11860000  1
  H  H8  1  0.88381000  0.04748000  0.06888000  1
  H  H9  1  0.34225000  0.84264000  0.11107000  1
  H  H10  1  0.39980000  0.75786000  0.01519000  1
  H  H11  1  0.00604000  0.27973000  0.87342000  1
  H  H12  1  0.00362000  0.11166000  0.80892000  1
  H  H13  1  0.37650000  0.83559000  0.59719000  1
  H  H14  1  0.37892000  0.00366000  0.66168000  1
  H  H15  1  0.04035000  0.27275000  0.35954000  1
  H  H16  1  0.98275000  0.35747000  0.45541000  1
  H  H17  1  0.07857000  0.21809000  0.01325000  1
  H  H18  1  0.03940000  0.27392000  0.60085000  1
  H  H19  1  0.30397000  0.89722000  0.45735000  1
  H  H20  1  0.34315000  0.84141000  0.86976000  1
  H  H21  1  0.10015000  0.18744000  0.74349000  1
  H  H22  1  0.28241000  0.92789000  0.72711000  1
  C  C1  1  0.65625000  0.06774000  0.35021000  1
  C  C2  1  0.54731000  0.06352000  0.34166000  1
  C  C3  1  0.55769000  0.04868000  0.18561000  1
  C  C4  1  0.66666667  0.05290000  0.19415000  1
  C  C5  1  0.71591000  0.06243000  0.27645000  1
  C  C6  1  0.82485000  0.06664000  0.28500000  1
  C  C7  1  0.83523000  0.05182000  0.12894000  1
  C  C8  1  0.72629000  0.04759000  0.12040000  1
  C  C9  1  0.00046000  0.06583000  0.22033000  1
  C  C10  1  0.88452000  0.06134000  0.21124000  1
  C  C11  1  0.38208000  0.04949000  0.25027000  1
  C  C12  1  0.49803000  0.05399000  0.25937000  1
  C  C13  1  0.19635000  0.78800000  0.23570000  1
  C  C14  1  0.19275000  0.62418000  0.23542000  1
  C  C15  1  0.18619000  0.32732000  0.23490000  1
  C  C16  1  0.18981000  0.49114000  0.23519000  1
  C  C17  1  0.13795000  0.13356000  0.98105000  1
  C  C18  1  0.14398000  0.12500000  0.89096000  1
  C  C19  1  0.21689000  0.02118000  0.85141000  1
  C  C20  1  0.28378000  0.92593000  0.90196000  1
  C  C21  1  0.27775000  0.93450000  0.99206000  1
  C  C22  1  0.23858000  0.99033000  0.57965000  1
  C  C23  1  0.24459000  0.98176000  0.48955000  1
  C  C24  1  0.10479000  0.18083000  0.47855000  1
  C  C25  1  0.09877000  0.18939000  0.56865000  1
  C  C26  1  0.16567000  0.09414000  0.61919000  1
  C  C27  1  0.22305000  0.01242000  0.75931000  1
  C  C28  1  0.15951000  0.10291000  0.71129000  1
  N  N1  1  0.70134000  0.08328000  0.43644000  1
  N  N2  1  0.68025000  0.04346000  0.03408000  1
  N  N3  1  0.34561000  0.83681000  0.04380000  1
  N  N4  1  0.04609000  0.18088000  0.85017000  1
  N  N5  1  0.33646000  0.93444000  0.62043000  1
  N  N6  1  0.03693000  0.27851000  0.42681000  1
  N  N7  1  0.20483000  0.03831000  0.03160000  1
  N  N8  1  0.17771000  0.07701000  0.43900000  1
  O  O1  1  0.04436000  0.06022000  0.14845000  1
  O  O2  1  0.03438000  0.07446000  0.29832000  1
  O  O3  1  0.33818000  0.05511000  0.32216000  1
  O  O4  1  0.34816000  0.04086000  0.17228000  1
  O  O5  1  0.19258000  0.85010000  0.31073000  1
  O  O6  1  0.20255000  0.83586000  0.16086000  1
  O  O7  1  0.17999000  0.27946000  0.30974000  1
  O  O8  1  0.18997000  0.26523000  0.15987000  1
