# generated using pymatgen
data_CuH12C18N4O5F
_symmetry_space_group_name_H-M   'P 1'
_cell_length_a   15.94450000
_cell_length_b   12.81140000
_cell_length_c   14.58630000
_cell_angle_alpha   84.56820000
_cell_angle_beta   90.01450000
_cell_angle_gamma   83.76840000
_symmetry_Int_Tables_number   1
_chemical_formula_structural   CuH12C18N4O5F
_chemical_formula_sum   'Cu2 H24 C36 N8 O10 F2'
_cell_volume   2948.49063903
_cell_formula_units_Z   2
loop_
 _symmetry_equiv_pos_site_id
 _symmetry_equiv_pos_as_xyz
  1  'x, y, z'
loop_
 _atom_site_type_symbol
 _atom_site_label
 _atom_site_symmetry_multiplicity
 _atom_site_fract_x
 _atom_site_fract_y
 _atom_site_fract_z
 _atom_site_occupancy
  Cu  Cu1  1  0.21872000  0.13383000  0.04323000  1
  Cu  Cu2  1  0.21875000  0.13382000  0.22356000  1
  H  H1  1  0.64267000  0.90483000  0.10333000  1
  H  H2  1  0.72746000  0.90679000  0.03537000  1
  H  H3  1  0.82487000  0.97843000  0.28391000  1
  H  H4  1  0.83150000  0.91226000  0.18980000  1
  H  H5  1  0.80238000  0.19942000  0.93303000  1
  H  H6  1  0.81578000  0.06708000  0.94397000  1
  H  H7  1  0.59668000  0.35277000  0.06588000  1
  H  H8  1  0.68213000  0.35562000  0.99901000  1
  H  H9  1  0.69766000  0.35319000  0.22258000  1
  H  H10  1  0.78966000  0.28781000  0.26134000  1
  H  H11  1  0.70463000  0.13337000  0.35109000  1
  H  H12  1  0.61268000  0.19827000  0.31175000  1
  H  H13  1  0.22193000  0.81524000  0.00907000  1
  H  H14  1  0.21551000  0.45243000  0.95610000  1
  H  H15  1  0.21555000  0.45239000  0.25771000  1
  H  H16  1  0.22197000  0.81523000  0.31068000  1
  H  H17  1  0.35646000  0.86358000  0.64404000  1
  H  H18  1  0.43389000  0.95945000  0.63610000  1
  H  H19  1  0.42793000  0.87024000  0.54904000  1
  H  H20  1  0.00359000  0.30819000  0.63070000  1
  H  H21  1  0.08102000  0.40407000  0.62275000  1
  H  H22  1  0.00954000  0.39741000  0.71776000  1
  H  H23  1  0.11581000  0.26354000  0.53552000  1
  H  H24  1  0.32168000  0.00410000  0.73128000  1
  C  C1  1  0.74660000  0.13444000  0.04651000  1
  C  C2  1  0.69957000  0.04672000  0.09720000  1
  C  C3  1  0.80120000  0.13564000  0.13324000  1
  C  C4  1  0.68208000  0.21966000  0.08284000  1
  C  C5  1  0.63628000  0.13200000  0.13355000  1
  C  C6  1  0.75540000  0.04788000  0.18393000  1
  C  C7  1  0.73791000  0.22089000  0.16955000  1
  C  C8  1  0.69090000  0.13315000  0.22031000  1
  C  C9  1  0.89621000  0.13774000  0.13306000  1
  C  C10  1  0.54127000  0.12990000  0.13374000  1
  C  C11  1  0.06519000  0.14149000  0.13275000  1
  C  C12  1  0.97194000  0.13941000  0.13291000  1
  C  C13  1  0.37228000  0.12616000  0.13404000  1
  C  C14  1  0.46553000  0.12823000  0.13388000  1
  C  C15  1  0.21824000  0.60646000  0.01099000  1
  C  C16  1  0.21630000  0.49698000  0.02009000  1
  C  C17  1  0.21632000  0.49697000  0.18633000  1
  C  C18  1  0.21826000  0.60645000  0.17723000  1
  C  C19  1  0.21922000  0.66119000  0.08956000  1
  C  C20  1  0.22115000  0.77067000  0.08046000  1
  C  C21  1  0.22118000  0.77066000  0.24670000  1
  C  C22  1  0.21924000  0.66118000  0.25580000  1
  C  C23  1  0.22420000  0.94193000  0.14935000  1
  C  C24  1  0.22214000  0.82541000  0.15904000  1
  C  C25  1  0.21327000  0.32572000  0.11744000  1
  C  C26  1  0.21534000  0.44224000  0.10775000  1
  C  C27  1  0.16199000  0.20532000  0.67542000  1
  C  C28  1  0.16201000  0.20532000  0.57944000  1
  C  C29  1  0.27549000  0.06233000  0.59138000  1
  C  C30  1  0.27548000  0.06233000  0.68736000  1
  C  C31  1  0.21873000  0.13383000  0.72938000  1
  C  C32  1  0.21875000  0.13382000  0.53742000  1
  C  C33  1  0.21876000  0.13382000  0.43335000  1
  C  C34  1  0.21872000  0.13383000  0.83345000  1
  C  C35  1  0.39003000  0.91800000  0.59702000  1
  C  C36  1  0.04745000  0.34964000  0.66977000  1
  N  N1  1  0.67110000  0.95044000  0.05148000  1
  N  N2  1  0.78907000  0.95218000  0.23248000  1
  N  N3  1  0.77071000  0.13240000  0.94628000  1
  N  N4  1  0.63484000  0.30920000  0.02172000  1
  N  N5  1  0.75372000  0.31247000  0.20177000  1
  N  N6  1  0.65313000  0.12898000  0.30785000  1
  N  N7  1  0.21871000  0.13383000  0.91640000  1
  N  N8  1  0.21877000  0.13382000  0.35039000  1
  O  O1  1  0.09647000  0.14219000  0.05286000  1
  O  O2  1  0.09650000  0.14218000  0.21252000  1
  O  O3  1  0.34100000  0.12546000  0.21393000  1
  O  O4  1  0.34097000  0.12546000  0.05427000  1
  O  O5  1  0.22491000  0.98103000  0.22593000  1
  O  O6  1  0.22488000  0.98103000  0.06627000  1
  O  O7  1  0.21257000  0.28662000  0.04086000  1
  O  O8  1  0.21259000  0.28662000  0.20052000  1
  O  O9  1  0.33111000  0.99224000  0.54463000  1
  O  O10  1  0.10637000  0.27540000  0.72217000  1
  F  F1  1  0.21913000  0.65784000  0.92525000  1
  F  F2  1  0.21835000  0.60981000  0.34154000  1
