# generated using pymatgen
data_CuH9C23N3O5F4
_symmetry_space_group_name_H-M   'P 1'
_cell_length_a   15.62520000
_cell_length_b   19.18890000
_cell_length_c   14.58630000
_cell_angle_alpha   89.99600000
_cell_angle_beta   71.92890000
_cell_angle_gamma   83.71150000
_symmetry_Int_Tables_number   1
_chemical_formula_structural   CuH9C23N3O5F4
_chemical_formula_sum   'Cu2 H18 C46 N6 O10 F8'
_cell_volume   4130.00729596
_cell_formula_units_Z   2
loop_
 _symmetry_equiv_pos_site_id
 _symmetry_equiv_pos_as_xyz
  1  'x, y, z'
loop_
 _atom_site_type_symbol
 _atom_site_label
 _atom_site_symmetry_multiplicity
 _atom_site_fract_x
 _atom_site_fract_y
 _atom_site_fract_z
 _atom_site_occupancy
  Cu  Cu1  1  0.18892000  0.17737000  0.03204000  1
  Cu  Cu2  1  0.18895000  0.17737000  0.21235000  1
  H  H1  1  0.85951000  0.17988000  0.98236000  1
  H  H2  1  0.63312000  0.17655000  0.82370000  1
  H  H3  1  0.46255000  0.17403000  0.88043000  1
  H  H4  1  0.51837000  0.17485000  0.26202000  1
  H  H5  1  0.74474000  0.17819000  0.42068000  1
  H  H6  1  0.91532000  0.18071000  0.36397000  1
  H  H7  1  0.19445000  0.96543000  0.27118000  1
  H  H8  1  0.19188000  0.83334000  0.97042000  1
  H  H9  1  0.18347000  0.38927000  0.27479000  1
  H  H10  1  0.18594000  0.52142000  0.97238000  1
  H  H11  1  0.33846000  0.99774000  0.56066000  1
  H  H12  1  0.42096000  0.06160000  0.53325000  1
  H  H13  1  0.41513000  0.00225000  0.44072000  1
  H  H14  1  0.95691000  0.29314000  0.71114000  1
  H  H15  1  0.03941000  0.35699000  0.68372000  1
  H  H16  1  0.96274000  0.35249000  0.80367000  1
  H  H17  1  0.07764000  0.26355000  0.57211000  1
  H  H18  1  0.30024000  0.09118000  0.67228000  1
  C  C1  1  0.59486000  0.17598000  0.90411000  1
  C  C2  1  0.50083000  0.17460000  0.93539000  1
  C  C3  1  0.50087000  0.17459000  0.10161000  1
  C  C4  1  0.59490000  0.17598000  0.07034000  1
  C  C5  1  0.64189000  0.17668000  0.97159000  1
  C  C6  1  0.64192000  0.17668000  0.13782000  1
  C  C7  1  0.73595000  0.17806000  0.10656000  1
  C  C8  1  0.78295000  0.17875000  0.00782000  1
  C  C9  1  0.73591000  0.17806000  0.94033000  1
  C  C10  1  0.59493000  0.17598000  0.23657000  1
  C  C11  1  0.64195000  0.17667000  0.30406000  1
  C  C12  1  0.73598000  0.17806000  0.27279000  1
  C  C13  1  0.78298000  0.17876000  0.17405000  1
  C  C14  1  0.78301000  0.17876000  0.34028000  1
  C  C15  1  0.87704000  0.18014000  0.30902000  1
  C  C16  1  0.87700000  0.18014000  0.14279000  1
  C  C17  1  0.02410000  0.18231000  0.17700000  1
  C  C18  1  0.92403000  0.18084000  0.21027000  1
  C  C19  1  0.35377000  0.17243000  0.06739000  1
  C  C20  1  0.45384000  0.17390000  0.03412000  1
  C  C21  1  0.19388000  0.93580000  0.20368000  1
  C  C22  1  0.19249000  0.86297000  0.20414000  1
  C  C23  1  0.19178000  0.82656000  0.12126000  1
  C  C24  1  0.19245000  0.86299000  0.03791000  1
  C  C25  1  0.19383000  0.93581000  0.03745000  1
  C  C26  1  0.18761000  0.60714000  0.12263000  1
  C  C27  1  0.19028000  0.74759000  0.12174000  1
  C  C28  1  0.18542000  0.49175000  0.20647000  1
  C  C29  1  0.18402000  0.41892000  0.20693000  1
  C  C30  1  0.18399000  0.41894000  0.04069000  1
  C  C31  1  0.18538000  0.49177000  0.04024000  1
  C  C32  1  0.18610000  0.52817000  0.12313000  1
  C  C33  1  0.19602000  0.04972000  0.11985000  1
  C  C34  1  0.19455000  0.97221000  0.12034000  1
  C  C35  1  0.18184000  0.30501000  0.12454000  1
  C  C36  1  0.18332000  0.38252000  0.12404000  1
  C  C37  1  0.12758000  0.22487000  0.69056000  1
  C  C38  1  0.12759000  0.22487000  0.59458000  1
  C  C39  1  0.25030000  0.12987000  0.55383000  1
  C  C40  1  0.25029000  0.12987000  0.64981000  1
  C  C41  1  0.18892000  0.17737000  0.71818000  1
  C  C42  1  0.18894000  0.17737000  0.52621000  1
  C  C43  1  0.18896000  0.17737000  0.42214000  1
  C  C44  1  0.18891000  0.17737000  0.82225000  1
  C  C45  1  0.37415000  0.03398000  0.50630000  1
  C  C46  1  0.00373000  0.32076000  0.73809000  1
  N  N1  1  0.24090000  0.70707000  0.04305000  1
  N  N2  1  0.23958000  0.63789000  0.04349000  1
  N  N3  1  0.13701000  0.64818000  0.20132000  1
  N  N4  1  0.13832000  0.71737000  0.20088000  1
  N  N5  1  0.18890000  0.17737000  0.90521000  1
  N  N6  1  0.18897000  0.17736000  0.33918000  1
  O  O1  1  0.05766000  0.18281000  0.08601000  1
  O  O2  1  0.05769000  0.18280000  0.24566000  1
  O  O3  1  0.32021000  0.17193000  0.15838000  1
  O  O4  1  0.32018000  0.17193000  0.99873000  1
  O  O5  1  0.19653000  0.07573000  0.19950000  1
  O  O6  1  0.19650000  0.07574000  0.03986000  1
  O  O7  1  0.18134000  0.27900000  0.04488000  1
  O  O8  1  0.18136000  0.27900000  0.20453000  1
  O  O9  1  0.31044000  0.08330000  0.48126000  1
  O  O10  1  0.06744000  0.27143000  0.76313000  1
  F  F1  1  0.78316000  0.17582000  0.84461000  1
  F  F2  1  0.59573000  0.17305000  0.39937000  1
  F  F3  1  0.44279000  0.19473000  0.19004000  1
  F  F4  1  0.92783000  0.20187000  0.05675000  1
  F  F5  1  0.19301000  0.82850000  0.28521000  1
  F  F6  1  0.19430000  0.97112000  0.95672000  1
  F  F7  1  0.18726000  0.52600000  0.28708000  1
  F  F8  1  0.18314000  0.38371000  0.96041000  1
