# generated using pymatgen
data_CuH13C23N(O2F)3
_symmetry_space_group_name_H-M   'P 1'
_cell_length_a   14.97150000
_cell_length_b   12.81140000
_cell_length_c   14.18490000
_cell_angle_alpha   71.50410000
_cell_angle_beta   103.14400000
_cell_angle_gamma   83.82990000
_symmetry_Int_Tables_number   1
_chemical_formula_structural   CuH13C23N(O2F)3
_chemical_formula_sum   'Cu2 H26 C46 N2 O12 F6'
_cell_volume   2464.62931311
_cell_formula_units_Z   2
loop_
 _symmetry_equiv_pos_site_id
 _symmetry_equiv_pos_as_xyz
  1  'x, y, z'
loop_
 _atom_site_type_symbol
 _atom_site_label
 _atom_site_symmetry_multiplicity
 _atom_site_fract_x
 _atom_site_fract_y
 _atom_site_fract_z
 _atom_site_occupancy
  Cu  Cu1  1  0.19634000  0.14007000  0.04225000  1
  Cu  Cu2  1  0.24532000  0.08219000  0.24484000  1
  H  H1  1  0.55377000  0.01268000  0.48755000  1
  H  H2  1  0.62321000  0.10395000  0.42665000  1
  H  H3  1  0.64413000  0.95454000  0.44407000  1
  H  H4  1  0.94016000  0.10019000  0.43058000  1
  H  H5  1  0.05494000  0.01372000  0.48713000  1
  H  H6  1  0.95938000  0.95302000  0.44044000  1
  H  H7  1  0.68652000  0.15458000  0.81213000  1
  H  H8  1  0.81157000  0.11808000  0.85363000  1
  H  H9  1  0.75130000  0.25176000  0.85032000  1
  H  H10  1  0.59155000  0.33569000  0.03594000  1
  H  H11  1  0.66386000  0.36014000  0.94819000  1
  H  H12  1  0.53854000  0.38614000  0.89820000  1
  H  H13  1  0.82102000  0.06409000  0.31285000  1
  H  H14  1  0.70256000  0.06137000  0.31309000  1
  H  H15  1  0.45147000  0.15434000  0.97458000  1
  H  H16  1  0.90829000  0.16473000  0.97365000  1
  H  H17  1  0.19049000  0.83245000  0.00387000  1
  H  H18  1  0.16928000  0.48662000  0.94436000  1
  H  H19  1  0.25118000  0.38979000  0.28321000  1
  H  H20  1  0.27240000  0.73564000  0.34272000  1
  H  H21  1  0.33013000  0.98192000  0.84585000  1
  H  H22  1  0.44201000  0.84970000  0.60508000  1
  H  H23  1  0.39473000  0.90560000  0.40947000  1
  H  H24  1  0.11153000  0.24033000  0.44124000  1
  H  H25  1  0.99967000  0.37255000  0.68200000  1
  H  H26  1  0.04693000  0.31667000  0.87762000  1
  C  C1  1  0.93386000  0.08878000  0.23654000  1
  C  C2  1  0.84059000  0.08666000  0.23673000  1
  C  C3  1  0.77139000  0.11228000  0.14344000  1
  C  C4  1  0.79545000  0.14003000  0.04996000  1
  C  C5  1  0.88871000  0.14215000  0.04977000  1
  C  C6  1  0.60108000  0.13560000  0.05036000  1
  C  C7  1  0.50781000  0.13348000  0.05054000  1
  C  C8  1  0.55296000  0.08012000  0.23731000  1
  C  C9  1  0.64622000  0.08224000  0.23712000  1
  C  C10  1  0.67027000  0.10998000  0.14364000  1
  C  C11  1  0.59043000  0.03026000  0.42616000  1
  C  C12  1  0.98853000  0.03101000  0.42592000  1
  C  C13  1  0.74973000  0.16123000  0.86688000  1
  C  C14  1  0.59942000  0.33004000  0.96144000  1
  C  C15  1  0.05716000  0.11878000  0.14285000  1
  C  C16  1  0.95791000  0.11652000  0.14306000  1
  C  C17  1  0.38450000  0.10348000  0.14423000  1
  C  C18  1  0.48375000  0.10574000  0.14402000  1
  C  C19  1  0.18708000  0.62305000  0.00602000  1
  C  C20  1  0.18748000  0.51065000  0.01624000  1
  C  C21  1  0.23263000  0.45729000  0.20301000  1
  C  C22  1  0.23222000  0.56969000  0.19279000  1
  C  C23  1  0.20945000  0.65257000  0.09429000  1
  C  C24  1  0.20904000  0.76497000  0.08407000  1
  C  C25  1  0.25419000  0.71160000  0.27084000  1
  C  C26  1  0.25459000  0.59920000  0.28106000  1
  C  C27  1  0.23098000  0.91412000  0.16146000  1
  C  C28  1  0.23141000  0.79449000  0.17235000  1
  C  C29  1  0.21068000  0.30814000  0.12562000  1
  C  C30  1  0.21025000  0.42776000  0.11473000  1
  C  C31  1  0.38088000  0.92196000  0.55575000  1
  C  C32  1  0.35482000  0.95278000  0.44792000  1
  C  C33  1  0.23076000  0.09941000  0.43456000  1
  C  C34  1  0.25681000  0.06861000  0.54240000  1
  C  C35  1  0.33188000  0.97988000  0.60299000  1
  C  C36  1  0.20781000  0.12653000  0.58963000  1
  C  C37  1  0.23386000  0.09573000  0.69746000  1
  C  C38  1  0.30892000  0.00700000  0.75805000  1
  C  C39  1  0.35793000  0.94908000  0.71081000  1
  C  C40  1  0.13274000  0.21525000  0.52904000  1
  C  C41  1  0.08374000  0.27318000  0.57627000  1
  C  C42  1  0.10979000  0.24238000  0.68410000  1
  C  C43  1  0.18485000  0.15365000  0.74470000  1
  C  C44  1  0.06078000  0.30030000  0.73134000  1
  C  C45  1  0.08684000  0.26950000  0.83917000  1
  C  C46  1  0.21091000  0.12285000  0.85252000  1
  N  N1  1  0.16190000  0.18077000  0.89976000  1
  N  N2  1  0.27977000  0.04148000  0.38733000  1
  O  O1  1  0.52366000  0.05387000  0.32881000  1
  O  O2  1  0.00775000  0.06312000  0.32764000  1
  O  O3  1  0.74500000  0.10719000  0.97045000  1
  O  O4  1  0.60469000  0.21842000  0.95914000  1
  O  O5  1  0.06879000  0.14516000  0.05310000  1
  O  O6  1  0.11215000  0.09392000  0.23247000  1
  O  O7  1  0.37288000  0.07709000  0.23398000  1
  O  O8  1  0.32951000  0.12835000  0.05462000  1
  O  O9  1  0.25252000  0.92864000  0.24750000  1
  O  O10  1  0.20916000  0.97988000  0.06813000  1
  O  O11  1  0.18915000  0.29361000  0.03959000  1
  O  O12  1  0.23251000  0.24237000  0.21895000  1
  F  F1  1  0.16475000  0.70194000  0.90970000  1
  F  F2  1  0.27692000  0.52031000  0.37739000  1
  F  F3  1  0.42814000  0.86017000  0.77113000  1
  F  F4  1  0.00866000  0.35600000  0.51651000  1
  F  F5  1  0.18158000  0.19973000  0.36459000  1
  F  F6  1  0.29510000  0.06550000  0.91859000  1
