# generated using pymatgen
data_CuH5C17N(OF)4
_symmetry_space_group_name_H-M   'P 1'
_cell_length_a   14.85350000
_cell_length_b   10.65460000
_cell_length_c   11.29570000
_cell_angle_alpha   94.15090000
_cell_angle_beta   85.91050000
_cell_angle_gamma   84.05650000
_symmetry_Int_Tables_number   1
_chemical_formula_structural   CuH5C17N(OF)4
_chemical_formula_sum   'Cu2 H10 C34 N2 O8 F8'
_cell_volume   1767.75755443
_cell_formula_units_Z   2
loop_
 _symmetry_equiv_pos_site_id
 _symmetry_equiv_pos_as_xyz
  1  'x, y, z'
loop_
 _atom_site_type_symbol
 _atom_site_label
 _atom_site_symmetry_multiplicity
 _atom_site_fract_x
 _atom_site_fract_y
 _atom_site_fract_z
 _atom_site_occupancy
  Cu  Cu1  1  0.24146000  0.11499000  0.00789000  1
  Cu  Cu2  1  0.22728000  0.13501000  0.24211000  1
  H  H1  1  0.97263000  0.11426000  0.92913000  1
  H  H2  1  0.51985000  0.10226000  0.92913000  1
  H  H3  1  0.49612000  0.13573000  0.32085000  1
  H  H4  1  0.94889000  0.14774000  0.32087000  1
  H  H5  1  0.24399000  0.48944000  0.92914000  1
  H  H6  1  0.22477000  0.76057000  0.32088000  1
  H  H7  1  0.14215000  0.25494000  0.83156000  1
  H  H8  1  0.10660000  0.30510000  0.41842000  1
  H  H9  1  0.32660000  0.99507000  0.41842000  1
  H  H10  1  0.36214000  0.94491000  0.83159000  1
  C  C1  1  0.55281000  0.11078000  0.01703000  1
  C  C2  1  0.53973000  0.12923000  0.23295000  1
  C  C3  1  0.63378000  0.13173000  0.23296000  1
  C  C4  1  0.68734000  0.12375000  0.12500000  1
  C  C5  1  0.64687000  0.11327000  0.01704000  1
  C  C6  1  0.67426000  0.14219000  0.34092000  1
  C  C7  1  0.76832000  0.14469000  0.34093000  1
  C  C8  1  0.82188000  0.13673000  0.23297000  1
  C  C9  1  0.78140000  0.12625000  0.12500000  1
  C  C10  1  0.83497000  0.11827000  0.01704000  1
  C  C11  1  0.79448000  0.10780000  0.90908000  1
  C  C12  1  0.70043000  0.10531000  0.90908000  1
  C  C13  1  0.91593000  0.13922000  0.23297000  1
  C  C14  1  0.92902000  0.12077000  0.01705000  1
  C  C15  1  0.06960000  0.13390000  0.12501000  1
  C  C16  1  0.96950000  0.13125000  0.12501000  1
  C  C17  1  0.39914000  0.11611000  0.12499000  1
  C  C18  1  0.49924000  0.11875000  0.12499000  1
  C  C19  1  0.24215000  0.68127000  0.01704000  1
  C  C20  1  0.23967000  0.55027000  0.01705000  1
  C  C21  1  0.22660000  0.56874000  0.23297000  1
  C  C22  1  0.22909000  0.69973000  0.23296000  1
  C  C23  1  0.23952000  0.89541000  0.12499000  1
  C  C24  1  0.23686000  0.75599000  0.12499000  1
  C  C25  1  0.22923000  0.35459000  0.12500000  1
  C  C26  1  0.23188000  0.49401000  0.12501000  1
  C  C27  1  0.14532000  0.25051000  0.59383000  1
  C  C28  1  0.15289000  0.23985000  0.46917000  1
  C  C29  1  0.27415000  0.06897000  0.46918000  1
  C  C30  1  0.26658000  0.07962000  0.59384000  1
  C  C31  1  0.20217000  0.17039000  0.65616000  1
  C  C32  1  0.19460000  0.18103000  0.78082000  1
  C  C33  1  0.31586000  0.01015000  0.78083000  1
  C  C34  1  0.32343000  0.99950000  0.65617000  1
  N  N1  1  0.25145000  0.10091000  0.84316000  1
  N  N2  1  0.21730000  0.14909000  0.40684000  1
  O  O1  1  0.10947000  0.12592000  0.02132000  1
  O  O2  1  0.09691000  0.14364000  0.22869000  1
  O  O3  1  0.35927000  0.12410000  0.22868000  1
  O  O4  1  0.37184000  0.10634000  0.02131000  1
  O  O5  1  0.23413000  0.95105000  0.22868000  1
  O  O6  1  0.24669000  0.93333000  0.02131000  1
  O  O7  1  0.23461000  0.29895000  0.02132000  1
  O  O8  1  0.22206000  0.31667000  0.22869000  1
  F  F1  1  0.62353000  0.15007000  0.44663000  1
  F  F2  1  0.80626000  0.15490000  0.44662000  1
  F  F3  1  0.84522000  0.09993000  0.80337000  1
  F  F4  1  0.66249000  0.09510000  0.80338000  1
  F  F5  1  0.24953000  0.73603000  0.91273000  1
  F  F6  1  0.21931000  0.51390000  0.33728000  1
  F  F7  1  0.08234000  0.33924000  0.65231000  1
  F  F8  1  0.38641000  0.91077000  0.59769000  1
