# generated using pymatgen
data_CuH11C20N2(O2F)3
_symmetry_space_group_name_H-M   'P 1'
_cell_length_a   14.97150000
_cell_length_b   16.10930000
_cell_length_c   14.42150000
_cell_angle_alpha   90.00860000
_cell_angle_beta   90.00440000
_cell_angle_gamma   83.54100000
_symmetry_Int_Tables_number   1
_chemical_formula_structural   CuH11C20N2(O2F)3
_chemical_formula_sum   'Cu2 H22 C40 N4 O12 F6'
_cell_volume   3456.10548522
_cell_formula_units_Z   2
loop_
 _symmetry_equiv_pos_site_id
 _symmetry_equiv_pos_as_xyz
  1  'x, y, z'
loop_
 _atom_site_type_symbol
 _atom_site_label
 _atom_site_symmetry_multiplicity
 _atom_site_fract_x
 _atom_site_fract_y
 _atom_site_fract_z
 _atom_site_occupancy
  Cu  Cu1  1  0.24318000  0.13342000  0.00746000  1
  Cu  Cu2  1  0.24320000  0.13344000  0.18985000  1
  H  H1  1  0.49299000  0.13332000  0.40835000  1
  H  H2  1  0.57686000  0.19184000  0.35974000  1
  H  H3  1  0.59413000  0.07743000  0.36327000  1
  H  H4  1  0.89287000  0.18975000  0.36305000  1
  H  H5  1  0.99426000  0.13405000  0.40805000  1
  H  H6  1  0.91027000  0.07540000  0.35979000  1
  H  H7  1  0.78917000  0.09283000  0.79598000  1
  H  H8  1  0.90429000  0.07331000  0.83127000  1
  H  H9  1  0.84430000  0.17846000  0.83946000  1
  H  H10  1  0.63916000  0.28695000  0.01810000  1
  H  H11  1  0.73268000  0.28646000  0.93904000  1
  H  H12  1  0.61940000  0.29574000  0.89502000  1
  H  H13  1  0.80246000  0.13450000  0.25119000  1
  H  H14  1  0.68395000  0.13240000  0.25118000  1
  H  H15  1  0.51468000  0.12941000  0.94612000  1
  H  H16  1  0.97169000  0.13743000  0.94614000  1
  H  H17  1  0.24037000  0.48342000  0.27582000  1
  H  H18  1  0.24223000  0.58136000  0.33234000  1
  H  H19  1  0.24601000  0.78345000  0.92150000  1
  H  H20  1  0.24415000  0.68551000  0.86498000  1
  H  H21  1  0.24171000  0.55475000  0.94613000  1
  H  H22  1  0.24469000  0.71211000  0.25120000  1
  C  C1  1  0.93372000  0.13678000  0.18274000  1
  C  C2  1  0.84042000  0.13515000  0.18273000  1
  C  C3  1  0.79377000  0.13432000  0.09866000  1
  C  C4  1  0.84042000  0.13514000  0.01459000  1
  C  C5  1  0.93372000  0.13678000  0.01459000  1
  C  C6  1  0.64596000  0.13172000  0.01459000  1
  C  C7  1  0.55266000  0.13008000  0.01458000  1
  C  C8  1  0.55267000  0.13009000  0.18272000  1
  C  C9  1  0.64597000  0.13173000  0.18273000  1
  C  C10  1  0.69261000  0.13255000  0.09866000  1
  C  C11  1  0.54449000  0.13335000  0.35308000  1
  C  C12  1  0.94264000  0.13389000  0.35292000  1
  C  C13  1  0.83906000  0.11049000  0.84715000  1
  C  C14  1  0.66514000  0.26561000  0.94875000  1
  C  C15  1  0.07966000  0.13934000  0.09867000  1
  C  C16  1  0.98037000  0.13759000  0.09867000  1
  C  C17  1  0.40672000  0.12753000  0.09865000  1
  C  C18  1  0.50602000  0.12927000  0.09865000  1
  C  C19  1  0.24400000  0.67678000  0.01459000  1
  C  C20  1  0.24237000  0.59006000  0.01459000  1
  C  C21  1  0.24238000  0.59009000  0.18273000  1
  C  C22  1  0.24402000  0.67681000  0.18273000  1
  C  C23  1  0.24483000  0.72015000  0.09865000  1
  C  C24  1  0.24156000  0.54671000  0.09866000  1
  C  C25  1  0.23979000  0.45268000  0.09867000  1
  C  C26  1  0.24660000  0.81419000  0.09865000  1
  C  C27  1  0.24976000  0.98143000  0.09865000  1
  C  C28  1  0.24801000  0.88914000  0.09865000  1
  C  C29  1  0.23663000  0.28543000  0.09867000  1
  C  C30  1  0.23837000  0.37772000  0.09867000  1
  C  C31  1  0.30660000  0.07434000  0.62955000  1
  C  C32  1  0.22572000  0.05831000  0.56772000  1
  C  C33  1  0.24318000  0.13342000  0.69002000  1
  C  C34  1  0.32407000  0.14942000  0.56776000  1
  C  C35  1  0.24320000  0.13343000  0.50730000  1
  C  C36  1  0.16227000  0.11736000  0.62955000  1
  C  C37  1  0.26067000  0.20851000  0.62960000  1
  C  C38  1  0.17973000  0.19251000  0.56779000  1
  C  C39  1  0.24318000  0.13342000  0.79528000  1
  C  C40  1  0.24320000  0.13344000  0.40204000  1
  N  N1  1  0.24159000  0.54784000  0.27034000  1
  N  N2  1  0.24479000  0.71903000  0.92698000  1
  N  N3  1  0.24318000  0.13341000  0.87918000  1
  N  N4  1  0.24321000  0.13345000  0.31813000  1
  O  O1  1  0.50126000  0.13001000  0.26509000  1
  O  O2  1  0.98560000  0.13708000  0.26479000  1
  O  O3  1  0.80940000  0.09113000  0.93834000  1
  O  O4  1  0.67140000  0.17668000  0.93724000  1
  O  O5  1  0.11297000  0.13991000  0.01792000  1
  O  O6  1  0.11299000  0.13993000  0.17940000  1
  O  O7  1  0.37341000  0.12694000  0.17939000  1
  O  O8  1  0.37340000  0.12694000  0.01791000  1
  O  O9  1  0.25035000  0.01241000  0.17939000  1
  O  O10  1  0.25033000  0.01240000  0.01791000  1
  O  O11  1  0.23604000  0.25445000  0.01792000  1
  O  O12  1  0.23604000  0.25446000  0.17940000  1
  F  F1  1  0.20783000  0.98133000  0.53472000  1
  F  F2  1  0.40699000  0.16587000  0.53490000  1
  F  F3  1  0.11477000  0.25309000  0.53485000  1
  F  F4  1  0.37159000  0.01375000  0.66247000  1
  F  F5  1  0.27861000  0.28551000  0.66254000  1
  F  F6  1  0.07937000  0.10089000  0.66250000  1
