# generated using pymatgen
data_CuH17C20(N2O)4
_symmetry_space_group_name_H-M   'P 1'
_cell_length_a   12.81140000
_cell_length_b   17.01930000
_cell_length_c   17.66630000
_cell_angle_alpha   86.12410000
_cell_angle_beta   95.43550000
_cell_angle_gamma   84.08720000
_symmetry_Int_Tables_number   1
_chemical_formula_structural   CuH17C20(N2O)4
_chemical_formula_sum   'Cu2 H34 C40 N16 O8'
_cell_volume   3802.60105160
_cell_formula_units_Z   2
loop_
 _symmetry_equiv_pos_site_id
 _symmetry_equiv_pos_as_xyz
  1  'x, y, z'
loop_
 _atom_site_type_symbol
 _atom_site_label
 _atom_site_symmetry_multiplicity
 _atom_site_fract_x
 _atom_site_fract_y
 _atom_site_fract_z
 _atom_site_occupancy
  Cu  Cu1  1  0.12960000  0.18936000  0.09555000  1
  Cu  Cu2  1  0.12961000  0.18936000  0.24444000  1
  H  H1  1  0.72268000  0.21854000  0.35760000  1
  H  H2  1  0.61330000  0.17959000  0.39412000  1
  H  H3  1  0.64925000  0.18012000  0.94734000  1
  H  H4  1  0.52684000  0.21527000  0.97814000  1
  H  H5  1  0.81103000  0.19238000  0.27245000  1
  H  H6  1  0.44822000  0.18636000  0.31658000  1
  H  H7  1  0.44817000  0.18634000  0.06755000  1
  H  H8  1  0.81100000  0.19236000  0.02342000  1
  H  H9  1  0.13695000  0.01998000  0.32093000  1
  H  H10  1  0.13343000  0.92890000  0.37757000  1
  H  H11  1  0.11074000  0.83015000  0.00211000  1
  H  H12  1  0.01921000  0.78031000  0.05212000  1
  H  H13  1  0.14847000  0.54857000  0.33789000  1
  H  H14  1  0.24000000  0.59841000  0.28788000  1
  H  H15  1  0.12234000  0.35873000  0.01908000  1
  H  H16  1  0.12578000  0.44982000  0.96243000  1
  H  H17  1  0.13535000  0.94993000  0.06148000  1
  H  H18  1  0.12712000  0.57804000  0.01998000  1
  H  H19  1  0.12385000  0.42879000  0.27852000  1
  H  H20  1  0.13210000  0.80067000  0.32002000  1
  H  H21  1  0.12992000  0.70330000  0.08064000  1
  H  H22  1  0.12931000  0.67540000  0.25937000  1
  H  H23  1  0.98178000  0.29660000  0.03378000  1
  H  H24  1  0.92914000  0.33651000  0.93971000  1
  H  H25  1  0.30587000  0.09634000  0.79855000  1
  H  H26  1  0.32285000  0.03801000  0.88701000  1
  H  H27  1  0.30554000  0.09614000  0.57795000  1
  H  H28  1  0.32281000  0.03800000  0.49932000  1
  H  H29  1  0.98181000  0.29666000  0.27199000  1
  H  H30  1  0.92919000  0.33653000  0.35362000  1
  H  H31  1  0.25894000  0.09230000  0.99868000  1
  H  H32  1  0.00026000  0.28641000  0.82450000  1
  H  H33  1  0.25896000  0.09230000  0.37173000  1
  H  H34  1  0.00026000  0.28642000  0.48509000  1
  C  C1  1  0.60225000  0.18891000  0.27109000  1
  C  C2  1  0.49277000  0.18709000  0.26370000  1
  C  C3  1  0.49276000  0.18708000  0.12644000  1
  C  C4  1  0.60223000  0.18890000  0.13383000  1
  C  C5  1  0.65697000  0.18982000  0.20616000  1
  C  C6  1  0.76645000  0.19164000  0.21356000  1
  C  C7  1  0.76643000  0.19163000  0.07630000  1
  C  C8  1  0.65696000  0.18981000  0.06890000  1
  C  C9  1  0.93770000  0.19449000  0.15649000  1
  C  C10  1  0.82119000  0.19254000  0.14862000  1
  C  C11  1  0.32151000  0.18423000  0.18351000  1
  C  C12  1  0.43802000  0.18617000  0.19138000  1
  C  C13  1  0.13463000  0.91644000  0.11950000  1
  C  C14  1  0.13281000  0.83415000  0.12474000  1
  C  C15  1  0.13191000  0.79301000  0.19599000  1
  C  C16  1  0.13283000  0.83417000  0.26200000  1
  C  C17  1  0.13465000  0.91645000  0.25676000  1
  C  C18  1  0.12641000  0.54457000  0.21526000  1
  C  C19  1  0.12458000  0.46228000  0.22050000  1
  C  C20  1  0.12457000  0.46227000  0.08324000  1
  C  C21  1  0.12638000  0.54455000  0.07800000  1
  C  C22  1  0.12731000  0.58570000  0.14401000  1
  C  C23  1  0.13005000  0.70890000  0.20135000  1
  C  C24  1  0.12918000  0.66981000  0.13865000  1
  C  C25  1  0.13749000  0.04516000  0.17993000  1
  C  C26  1  0.13555000  0.95759000  0.18551000  1
  C  C27  1  0.12172000  0.33355000  0.16006000  1
  C  C28  1  0.12366000  0.42113000  0.15449000  1
  C  C29  1  0.20089000  0.13586000  0.95960000  1
  C  C30  1  0.20089000  0.13586000  0.88035000  1
  C  C31  1  0.12960000  0.18936000  0.83234000  1
  C  C32  1  0.05829000  0.24285000  0.86359000  1
  C  C33  1  0.05829000  0.24285000  0.94283000  1
  C  C34  1  0.12961000  0.18937000  0.59358000  1
  C  C35  1  0.12960000  0.18937000  0.74641000  1
  C  C36  1  0.20091000  0.13587000  0.47641000  1
  C  C37  1  0.20090000  0.13587000  0.39716000  1
  C  C38  1  0.05831000  0.24286000  0.38040000  1
  C  C39  1  0.05831000  0.24286000  0.45965000  1
  C  C40  1  0.12962000  0.18937000  0.50765000  1
  N  N1  1  0.65301000  0.19284000  0.34668000  1
  N  N2  1  0.60513000  0.19198000  0.99284000  1
  N  N3  1  0.13504000  0.95867000  0.32406000  1
  N  N4  1  0.08820000  0.80826000  0.05413000  1
  N  N5  1  0.17101000  0.57045000  0.28587000  1
  N  N6  1  0.12417000  0.42005000  0.01594000  1
  N  N7  1  0.11636000  0.25912000  0.70247000  1
  N  N8  1  0.11637000  0.25912000  0.62719000  1
  N  N9  1  0.14286000  0.11961000  0.63809000  1
  N  N10  1  0.14286000  0.11962000  0.71338000  1
  N  N11  1  0.98266000  0.29611000  0.97478000  1
  N  N12  1  0.27894000  0.08361000  0.85136000  1
  N  N13  1  0.27883000  0.08356000  0.52299000  1
  N  N14  1  0.98266000  0.29617000  0.33118000  1
  N  N15  1  0.12960000  0.18935000  0.99083000  1
  N  N16  1  0.12961000  0.18936000  0.34916000  1
  O  O1  1  0.97679000  0.19514000  0.09322000  1
  O  O2  1  0.97680000  0.19514000  0.22504000  1
  O  O3  1  0.28241000  0.18358000  0.24677000  1
  O  O4  1  0.28240000  0.18357000  0.11495000  1
  O  O5  1  0.13814000  0.07455000  0.24397000  1
  O  O6  1  0.13813000  0.07455000  0.11215000  1
  O  O7  1  0.12106000  0.30416000  0.09602000  1
  O  O8  1  0.12108000  0.30417000  0.22784000  1
