# generated using pymatgen
data_Zn7H132C124(NO5)4
_symmetry_space_group_name_H-M   'P 1'
_cell_length_a   24.94510000
_cell_length_b   21.88374000
_cell_length_c   32.00342000
_cell_angle_alpha   104.02652000
_cell_angle_beta   115.94065000
_cell_angle_gamma   111.52056000
_symmetry_Int_Tables_number   1
_chemical_formula_structural   Zn7H132C124(NO5)4
_chemical_formula_sum   'Zn14 H264 C248 N8 O40'
_cell_volume   12808.91073430
_cell_formula_units_Z   2
loop_
 _symmetry_equiv_pos_site_id
 _symmetry_equiv_pos_as_xyz
  1  'x, y, z'
loop_
 _atom_site_type_symbol
 _atom_site_label
 _atom_site_symmetry_multiplicity
 _atom_site_fract_x
 _atom_site_fract_y
 _atom_site_fract_z
 _atom_site_occupancy
  Zn  Zn1  1  0.17657000  0.14144000  0.99733000  1
  Zn  Zn2  1  0.04965000  0.08202000  0.88840000  1
  Zn  Zn3  1  0.00772000  0.05572000  0.03679000  1
  Zn  Zn4  1  0.16772000  0.16058000  0.50943000  1
  Zn  Zn5  1  0.06011000  0.10615000  0.39764000  1
  Zn  Zn6  1  0.96929000  0.05090000  0.52499000  1
  Zn  Zn7  1  0.01822000  0.99639000  0.94353000  1
  Zn  Zn8  1  0.00455000  0.01447000  0.44180000  1
  Zn  Zn9  1  0.86571000  0.87021000  0.90450000  1
  Zn  Zn10  1  0.98969000  0.91153000  0.00043000  1
  Zn  Zn11  1  0.01192000  0.91817000  0.84499000  1
  Zn  Zn12  1  0.84515000  0.87405000  0.38906000  1
  Zn  Zn13  1  0.97059000  0.91865000  0.49006000  1
  Zn  Zn14  1  0.99949000  0.93396000  0.34704000  1
  H  H1  1  0.46893000  0.11245000  0.89062000  1
  H  H2  1  0.58400000  0.19568000  0.90933000  1
  H  H3  1  0.82098000  0.21366000  0.02359000  1
  H  H4  1  0.44927000  0.14804000  0.39564000  1
  H  H5  1  0.56369000  0.22044000  0.40991000  1
  H  H6  1  0.83196000  0.25835000  0.53065000  1
  H  H7  1  0.09851000  0.03617000  0.03963000  1
  H  H8  1  0.07323000  0.05016000  0.53806000  1
  H  H9  1  0.09538000  0.10866000  0.69887000  1
  H  H10  1  0.05670000  0.18976000  0.75079000  1
  H  H11  1  0.01523000  0.14435000  0.77824000  1
  H  H12  1  0.11944000  0.13058000  0.82107000  1
  H  H13  1  0.21174000  0.03388000  0.30268000  1
  H  H14  1  0.19344000  0.97328000  0.33028000  1
  H  H15  1  0.17253000  0.04379000  0.33815000  1
  H  H16  1  0.09379000  0.27465000  0.37864000  1
  H  H17  1  0.97118000  0.21708000  0.35935000  1
  H  H18  1  0.84912000  0.14079000  0.52887000  1
  H  H19  1  0.87156000  0.04687000  0.54611000  1
  H  H20  1  0.72951000  0.11941000  0.48120000  1
  H  H21  1  0.75249000  0.11665000  0.54230000  1
  H  H22  1  0.83489000  0.07030000  0.57875000  1
  H  H23  1  0.38811000  0.07059000  0.58862000  1
  H  H24  1  0.41261000  0.09056000  0.65422000  1
  H  H25  1  0.31509000  0.11602000  0.63543000  1
  H  H26  1  0.38300000  0.17805000  0.63228000  1
  H  H27  1  0.29854000  0.10330000  0.57192000  1
  H  H28  1  0.24922000  0.96947000  0.09398000  1
  H  H29  1  0.23267000  0.03775000  0.01828000  1
  H  H30  1  0.31574000  0.10928000  0.14054000  1
  H  H31  1  0.23973000  0.06862000  0.14213000  1
  H  H32  1  0.23627000  0.10538000  0.09691000  1
  H  H33  1  0.30793000  0.03747000  0.05949000  1
  H  H34  1  0.71460000  0.10684000  0.37938000  1
  H  H35  1  0.97707000  0.24393000  0.48136000  1
  H  H36  1  0.83947000  0.09588000  0.32429000  1
  H  H37  1  0.31649000  0.06404000  0.49197000  1
  H  H38  1  0.49035000  0.12084000  0.51009000  1
  H  H39  1  0.28065000  0.25968000  0.45592000  1
  H  H40  1  0.44209000  0.09029000  0.53583000  1
  H  H41  1  0.72329000  0.07781000  0.88533000  1
  H  H42  1  0.98406000  0.22295000  0.97665000  1
  H  H43  1  0.83240000  0.06360000  0.82124000  1
  H  H44  1  0.32492000  0.06540000  0.99233000  1
  H  H45  1  0.43930000  0.97717000  0.00070000  1
  H  H46  1  0.50196000  0.11376000  0.02207000  1
  H  H47  1  0.44591000  0.08893000  0.04288000  1
  H  H48  1  0.22411000  0.11850000  0.83859000  1
  H  H49  1  0.00455000  0.09246000  0.24230000  1
  H  H50  1  0.92058000  0.09946000  0.17963000  1
  H  H51  1  0.95608000  0.04994000  0.10740000  1
  H  H52  1  0.95380000  0.27362000  0.39618000  1
  H  H53  1  0.44675000  0.03381000  0.41724000  1
  H  H54  1  0.35989000  0.02089000  0.38653000  1
  H  H55  1  0.48226000  0.01588000  0.94722000  1
  H  H56  1  0.39473000  0.99450000  0.90008000  1
  H  H57  1  0.78845000  0.05408000  0.46782000  1
  H  H58  1  0.20950000  0.17243000  0.39699000  1
  H  H59  1  0.97291000  0.29735000  0.35220000  1
  H  H60  1  0.24375000  0.18706000  0.89629000  1
  H  H61  1  0.87242000  0.06333000  0.10963000  1
  H  H62  1  0.71860000  0.24289000  0.37737000  1
  H  H63  1  0.10160000  0.23029000  0.82134000  1
  H  H64  1  0.74281000  0.23621000  0.88248000  1
  H  H65  1  0.38529000  0.17431000  0.88873000  1
  H  H66  1  0.76825000  0.27553000  0.05126000  1
  H  H67  1  0.65638000  0.29090000  0.40220000  1
  H  H68  1  0.39330000  0.24954000  0.43396000  1
  H  H69  1  0.22181000  0.22326000  0.80259000  1
  H  H70  1  0.69096000  0.03102000  0.47912000  1
  H  H71  1  0.68657000  0.29345000  0.90799000  1
  H  H72  1  0.07573000  0.30134000  0.45360000  1
  H  H73  1  0.93798000  0.33515000  0.05192000  1
  H  H74  1  0.77361000  0.31210000  0.55729000  1
  H  H75  1  0.09995000  0.35796000  0.37989000  1
  H  H76  1  0.36604000  0.32044000  0.98761000  1
  H  H77  1  0.89690000  0.33121000  0.96181000  1
  H  H78  1  0.32176000  0.21289000  0.84380000  1
  H  H79  1  0.23882000  0.27481000  0.86528000  1
  H  H80  1  0.01651000  0.36034000  0.55932000  1
  H  H81  1  0.94463000  0.35913000  0.56038000  1
  H  H82  1  0.01483000  0.33968000  0.05817000  1
  H  H83  1  0.60584000  0.32815000  0.91209000  1
  H  H84  1  0.53692000  0.26440000  0.04336000  1
  H  H85  1  0.59398000  0.34669000  0.41329000  1
  H  H86  1  0.54127000  0.29204000  0.55812000  1
  H  H87  1  0.07746000  0.38199000  0.44837000  1
  H  H88  1  0.12627000  0.32604000  0.92611000  1
  H  H89  1  0.30381000  0.26614000  0.99627000  1
  H  H90  1  0.89531000  0.36004000  0.47132000  1
  H  H91  1  0.96460000  0.35457000  0.47106000  1
  H  H92  1  0.28424000  0.17048000  0.33793000  1
  H  H93  1  0.19498000  0.14991000  0.30988000  1
  H  H94  1  0.97113000  0.32990000  0.96893000  1
  H  H95  1  0.35768000  0.27985000  0.90926000  1
  H  H96  1  0.72966000  0.06091000  0.03111000  1
  H  H97  1  0.18869000  0.97994000  0.53681000  1
  H  H98  1  0.33159000  0.29896000  0.40751000  1
  H  H99  1  0.24334000  0.27650000  0.37808000  1
  H  H100  1  0.65375000  0.34592000  0.06342000  1
  H  H101  1  0.65574000  0.36569000  0.57230000  1
  H  H102  1  0.36708000  0.44208000  0.44658000  1
  H  H103  1  0.42643000  0.36196000  0.08076000  1
  H  H104  1  0.07444000  0.36979000  0.85789000  1
  H  H105  1  0.29825000  0.31711000  0.84891000  1
  H  H106  1  0.31922000  0.36216000  0.53791000  1
  H  H107  1  0.41820000  0.43596000  0.07071000  1
  H  H108  1  0.25708000  0.22384000  0.30904000  1
  H  H109  1  0.82099000  0.36883000  0.88737000  1
  H  H110  1  0.13742000  0.41309000  0.84473000  1
  H  H111  1  0.05142000  0.48804000  0.61389000  1
  H  H112  1  0.97946000  0.48035000  0.55833000  1
  H  H113  1  0.79534000  0.47133000  0.07196000  1
  H  H114  1  0.63977000  0.43168000  0.89157000  1
  H  H115  1  0.78881000  0.48914000  0.57051000  1
  H  H116  1  0.63050000  0.44572000  0.38943000  1
  H  H117  1  0.20741000  0.47596000  0.44222000  1
  H  H118  1  0.40756000  0.39166000  0.50815000  1
  H  H119  1  0.45335000  0.52932000  0.49018000  1
  H  H120  1  0.44435000  0.44324000  0.45662000  1
  H  H121  1  0.37349000  0.43415000  0.97896000  1
  H  H122  1  0.32528000  0.32023000  0.08781000  1
  H  H123  1  0.04680000  0.44610000  0.81672000  1
  H  H124  1  0.15675000  0.46160000  0.95201000  1
  H  H125  1  0.05166000  0.48183000  0.55672000  1
  H  H126  1  0.04975000  0.45892000  0.05232000  1
  H  H127  1  0.04198000  0.46609000  0.10651000  1
  H  H128  1  0.97258000  0.45404000  0.04668000  1
  H  H129  1  0.76491000  0.43690000  0.90009000  1
  H  H130  1  0.84835000  0.40666000  0.95497000  1
  H  H131  1  0.24779000  0.45537000  0.85938000  1
  H  H132  1  0.39272000  0.41774000  0.13459000  1
  H  H133  1  0.31274000  0.39238000  0.07554000  1
  H  H134  1  0.07192000  0.48651000  0.88357000  1
  H  H135  1  0.81320000  0.49403000  0.45278000  1
  H  H136  1  0.90827000  0.45153000  0.93913000  1
  H  H137  1  0.82532000  0.48380000  0.88563000  1
  H  H138  1  0.82380000  0.57788000  0.05352000  1
  H  H139  1  0.81899000  0.59278000  0.54928000  1
  H  H140  1  0.32744000  0.54254000  0.43480000  1
  H  H141  1  0.49487000  0.47477000  0.54956000  1
  H  H142  1  0.44808000  0.55270000  0.56969000  1
  H  H143  1  0.43543000  0.48499000  0.59131000  1
  H  H144  1  0.21795000  0.52021000  0.94363000  1
  H  H145  1  0.13409000  0.52830000  0.86869000  1
  H  H146  1  0.93864000  0.54151000  0.48717000  1
  H  H147  1  0.91225000  0.56750000  0.55387000  1
  H  H148  1  0.83327000  0.51612000  0.40985000  1
  H  H149  1  0.67738000  0.58040000  0.93123000  1
  H  H150  1  0.60277000  0.56411000  0.85038000  1
  H  H151  1  0.86575000  0.52954000  0.99958000  1
  H  H152  1  0.35597000  0.96409000  0.95601000  1
  H  H153  1  0.16923000  0.96461000  0.05164000  1
  H  H154  1  0.34250000  0.97477000  0.44660000  1
  H  H155  1  0.42600000  0.98231000  0.47491000  1
  H  H156  1  0.71216000  0.03881000  0.29081000  1
  H  H157  1  0.78202000  0.02287000  0.25644000  1
  H  H158  1  0.70930000  0.00134000  0.79755000  1
  H  H159  1  0.82813000  0.00473000  0.30865000  1
  H  H160  1  0.77083000  0.98532000  0.75513000  1
  H  H161  1  0.82808000  0.97598000  0.80853000  1
  H  H162  1  0.69223000  0.02873000  0.93784000  1
  H  H163  1  0.64162000  0.05646000  0.95379000  1
  H  H164  1  0.78544000  0.98523000  0.36587000  1
  H  H165  1  0.80083000  0.96168000  0.87395000  1
  H  H166  1  0.09706000  0.95689000  0.17792000  1
  H  H167  1  0.06897000  0.91139000  0.26524000  1
  H  H168  1  0.28367000  0.98611000  0.61213000  1
  H  H169  1  0.33852000  0.95780000  0.60574000  1
  H  H170  1  0.31971000  0.94139000  0.02204000  1
  H  H171  1  0.69829000  0.94731000  0.27106000  1
  H  H172  1  0.40380000  0.58046000  0.02865000  1
  H  H173  1  0.45577000  0.69416000  0.02158000  1
  H  H174  1  0.29199000  0.57204000  0.85360000  1
  H  H175  1  0.55997000  0.78256000  0.90077000  1
  H  H176  1  0.43856000  0.70283000  0.87391000  1
  H  H177  1  0.50646000  0.82423000  0.03349000  1
  H  H178  1  0.62850000  0.90292000  0.06066000  1
  H  H179  1  0.26245000  0.81777000  0.89178000  1
  H  H180  1  0.33048000  0.76665000  0.87873000  1
  H  H181  1  0.38900000  0.74842000  0.02123000  1
  H  H182  1  0.31545000  0.79234000  0.03109000  1
  H  H183  1  0.37796000  0.61537000  0.59217000  1
  H  H184  1  0.44630000  0.74729000  0.61401000  1
  H  H185  1  0.39150000  0.67450000  0.45543000  1
  H  H186  1  0.53153000  0.89013000  0.45458000  1
  H  H187  1  0.44255000  0.84303000  0.47266000  1
  H  H188  1  0.57654000  0.80101000  0.58747000  1
  H  H189  1  0.65598000  0.83045000  0.55906000  1
  H  H190  1  0.41367000  0.98805000  0.55695000  1
  H  H191  1  0.49302000  0.94141000  0.57956000  1
  H  H192  1  0.30979000  0.71584000  0.49427000  1
  H  H193  1  0.23376000  0.76499000  0.48126000  1
  H  H194  1  0.93694000  0.96114000  0.84950000  1
  H  H195  1  0.93646000  0.99423000  0.34976000  1
  H  H196  1  0.92489000  0.88128000  0.68437000  1
  H  H197  1  0.97680000  0.83343000  0.58676000  1
  H  H198  1  0.88519000  0.75706000  0.54597000  1
  H  H199  1  0.93756000  0.79031000  0.61614000  1
  H  H200  1  0.88664000  0.86994000  0.55993000  1
  H  H201  1  0.87742000  0.00026000  0.13608000  1
  H  H202  1  0.65988000  0.81118000  0.38523000  1
  H  H203  1  0.72957000  0.97581000  0.56090000  1
  H  H204  1  0.55733000  0.67483000  0.36956000  1
  H  H205  1  0.46959000  0.65090000  0.34598000  1
  H  H206  1  0.50937000  0.78142000  0.39411000  1
  H  H207  1  0.50332000  0.69455000  0.43907000  1
  H  H208  1  0.51490000  0.61964000  0.41690000  1
  H  H209  1  0.59149000  0.71357000  0.46189000  1
  H  H210  1  0.53631000  0.77088000  0.35224000  1
  H  H211  1  0.23041000  0.84442000  0.41792000  1
  H  H212  1  0.13915000  0.83616000  0.32573000  1
  H  H213  1  0.09126000  0.87737000  0.33295000  1
  H  H214  1  0.04265000  0.77994000  0.36226000  1
  H  H215  1  0.02328000  0.70997000  0.26048000  1
  H  H216  1  0.02669000  0.77953000  0.23925000  1
  H  H217  1  0.97665000  0.75488000  0.26608000  1
  H  H218  1  0.10073000  0.75424000  0.36039000  1
  H  H219  1  0.78809000  0.01522000  0.98680000  1
  H  H220  1  0.69095000  0.80337000  0.01894000  1
  H  H221  1  0.83020000  0.85031000  0.09759000  1
  H  H222  1  0.89874000  0.90980000  0.09401000  1
  H  H223  1  0.64359000  0.98998000  0.00701000  1
  H  H224  1  0.82900000  0.81922000  0.99773000  1
  H  H225  1  0.54439000  0.91924000  0.90789000  1
  H  H226  1  0.56138000  0.94928000  0.86488000  1
  H  H227  1  0.59458000  0.89505000  0.88758000  1
  H  H228  1  0.84888000  0.74615000  0.06978000  1
  H  H229  1  0.92808000  0.82893000  0.13021000  1
  H  H230  1  0.91965000  0.80848000  0.06879000  1
  H  H231  1  0.76079000  0.76128000  0.00084000  1
  H  H232  1  0.05846000  0.76187000  0.90551000  1
  H  H233  1  0.03455000  0.65841000  0.83787000  1
  H  H234  1  0.05061000  0.58559000  0.83949000  1
  H  H235  1  0.17023000  0.67707000  0.92570000  1
  H  H236  1  0.15711000  0.65233000  0.83896000  1
  H  H237  1  0.07457000  0.62512000  0.78125000  1
  H  H238  1  0.13497000  0.72150000  0.83235000  1
  H  H239  1  0.09948000  0.66956000  0.92923000  1
  H  H240  1  0.71000000  0.98723000  0.35374000  1
  H  H241  1  0.88773000  0.66467000  0.43566000  1
  H  H242  1  0.67394000  0.59995000  0.43435000  1
  H  H243  1  0.95407000  0.62840000  0.48812000  1
  H  H244  1  0.61074000  0.58750000  0.31887000  1
  H  H245  1  0.68810000  0.63621000  0.32068000  1
  H  H246  1  0.72738000  0.75251000  0.40518000  1
  H  H247  1  0.99899000  0.64004000  0.57756000  1
  H  H248  1  0.92831000  0.65653000  0.55574000  1
  H  H249  1  0.58269000  0.68404000  0.30881000  1
  H  H250  1  0.59158000  0.64280000  0.25830000  1
  H  H251  1  0.66269000  0.73516000  0.31333000  1
  H  H252  1  0.66003000  0.68524000  0.40399000  1
  H  H253  1  0.36790000  0.94118000  0.37990000  1
  H  H254  1  0.70155000  0.91277000  0.78052000  1
  H  H255  1  0.72620000  0.96000000  0.86785000  1
  H  H256  1  0.90893000  0.66719000  0.95720000  1
  H  H257  1  0.59169000  0.62568000  0.82513000  1
  H  H258  1  0.72339000  0.73036000  0.90506000  1
  H  H259  1  0.62201000  0.71484000  0.90780000  1
  H  H260  1  0.54999000  0.62234000  0.88230000  1
  H  H261  1  0.63746000  0.65832000  0.93857000  1
  H  H262  1  0.70337000  0.65951000  0.84895000  1
  H  H263  1  0.91838000  0.57584000  0.98085000  1
  H  H264  1  0.40596000  0.92156000  0.91042000  1
  C  C1  1  0.50955000  0.16273000  0.92868000  1
  C  C2  1  0.78763000  0.22349000  0.95219000  1
  C  C3  1  0.79297000  0.23277000  0.99903000  1
  C  C4  1  0.49467000  0.19444000  0.43453000  1
  C  C5  1  0.79544000  0.26795000  0.50328000  1
  C  C6  1  0.23875000  0.10876000  0.94554000  1
  C  C7  1  0.92888000  0.08005000  0.95732000  1
  C  C8  1  0.23319000  0.11773000  0.46493000  1
  C  C9  1  0.91233000  0.09640000  0.45223000  1
  C  C10  1  0.05604000  0.06326000  0.73905000  1
  C  C11  1  0.05798000  0.05893000  0.69549000  1
  C  C12  1  0.06633000  0.17651000  0.78380000  1
  C  C13  1  0.17393000  0.00338000  0.31068000  1
  C  C14  1  0.80229000  0.08297000  0.50799000  1
  C  C15  1  0.74008000  0.08768000  0.50260000  1
  C  C16  1  0.36734000  0.06816000  0.61295000  1
  C  C17  1  0.33885000  0.11920000  0.61306000  1
  C  C18  1  0.24901000  0.00479000  0.03596000  1
  C  C19  1  0.22791000  0.99828000  0.07390000  1
  C  C20  1  0.25684000  0.07532000  0.11593000  1
  C  C21  1  0.87909000  0.13546000  0.43213000  1
  C  C22  1  0.80442000  0.09736000  0.39786000  1
  C  C23  1  0.77191000  0.13678000  0.40159000  1
  C  C24  1  0.81331000  0.21400000  0.43621000  1
  C  C25  1  0.88703000  0.25403000  0.46028000  1
  C  C26  1  0.91975000  0.21406000  0.45898000  1
  C  C27  1  0.41688000  0.17965000  0.46528000  1
  C  C28  1  0.39458000  0.12537000  0.48071000  1
  C  C29  1  0.33248000  0.10347000  0.47833000  1
  C  C30  1  0.29179000  0.13333000  0.45962000  1
  C  C31  1  0.31034000  0.18216000  0.43939000  1
  C  C32  1  0.37450000  0.20695000  0.44439000  1
  C  C33  1  0.43566000  0.08936000  0.49903000  1
  C  C34  1  0.39694000  0.00759000  0.45737000  1
  C  C35  1  0.39278000  0.00086000  0.40725000  1
  C  C36  1  0.88973000  0.11312000  0.93500000  1
  C  C37  1  0.81473000  0.07155000  0.90397000  1
  C  C38  1  0.78041000  0.10930000  0.90614000  1
  C  C39  1  0.81978000  0.18738000  0.93623000  1
  C  C40  1  0.89239000  0.22894000  0.95699000  1
  C  C41  1  0.92706000  0.19119000  0.95655000  1
  C  C42  1  0.42142000  0.14381000  0.94947000  1
  C  C43  1  0.40233000  0.10789000  0.97632000  1
  C  C44  1  0.33985000  0.09297000  0.97185000  1
  C  C45  1  0.29731000  0.11482000  0.94211000  1
  C  C46  1  0.31430000  0.14663000  0.91243000  1
  C  C47  1  0.37346000  0.15464000  0.91334000  1
  C  C48  1  0.44543000  0.08069000  0.00701000  1
  C  C49  1  0.41366000  0.99704000  0.97397000  1
  C  C50  1  0.04260000  0.01043000  0.11502000  1
  C  C51  1  0.01384000  0.99765000  0.78287000  1
  C  C52  1  0.03709000  0.01857000  0.29469000  1
  C  C53  1  0.00914000  0.99809000  0.73555000  1
  C  C54  1  0.04503000  0.02160000  0.25184000  1
  C  C55  1  0.04278000  0.01458000  0.16184000  1
  C  C56  1  0.01115000  0.04835000  0.17792000  1
  C  C57  1  0.02039000  0.05881000  0.22623000  1
  C  C58  1  0.90750000  0.05814000  0.14304000  1
  C  C59  1  0.98584000  0.27520000  0.38056000  1
  C  C60  1  0.42503000  0.98169000  0.93029000  1
  C  C61  1  0.78114000  0.24961000  0.45289000  1
  C  C62  1  0.82199000  0.04161000  0.53875000  1
  C  C63  1  0.26780000  0.16872000  0.87806000  1
  C  C64  1  0.57491000  0.21003000  0.93933000  1
  C  C65  1  0.55955000  0.23591000  0.44257000  1
  C  C66  1  0.73117000  0.25862000  0.41681000  1
  C  C67  1  0.00284000  0.99543000  0.59937000  1
  C  C68  1  0.00914000  0.99262000  0.64671000  1
  C  C69  1  0.74892000  0.24538000  0.91953000  1
  C  C70  1  0.76302000  0.26756000  0.01462000  1
  C  C71  1  0.26681000  0.21598000  0.42021000  1
  C  C72  1  0.49508000  0.18257000  0.96575000  1
  C  C73  1  0.72594000  0.29172000  0.98294000  1
  C  C74  1  0.71808000  0.27927000  0.93460000  1
  C  C75  1  0.48771000  0.21465000  0.47606000  1
  C  C76  1  0.69635000  0.28667000  0.43117000  1
  C  C77  1  0.17724000  0.24248000  0.95221000  1
  C  C78  1  0.17811000  0.26961000  0.47124000  1
  C  C79  1  0.76129000  0.29684000  0.51797000  1
  C  C80  1  0.93031000  0.33865000  0.48490000  1
  C  C81  1  0.62719000  0.27709000  0.98793000  1
  C  C82  1  0.54786000  0.24823000  0.01469000  1
  C  C83  1  0.61778000  0.29904000  0.49217000  1
  C  C84  1  0.54640000  0.27573000  0.52596000  1
  C  C85  1  0.71224000  0.30733000  0.48245000  1
  C  C86  1  0.11045000  0.33107000  0.40537000  1
  C  C87  1  0.06476000  0.32518000  0.42619000  1
  C  C88  1  0.93328000  0.31314000  0.97973000  1
  C  C89  1  0.30786000  0.23317000  0.87047000  1
  C  C90  1  0.26365000  0.26371000  0.84535000  1
  C  C91  1  0.97736000  0.37681000  0.54568000  1
  C  C92  1  0.61361000  0.29494000  0.02576000  1
  C  C93  1  0.61104000  0.31771000  0.53390000  1
  C  C94  1  0.22080000  0.34498000  0.47902000  1
  C  C95  1  0.18907000  0.37615000  0.44997000  1
  C  C96  1  0.21642000  0.31521000  0.95555000  1
  C  C97  1  0.33481000  0.32336000  0.00338000  1
  C  C98  1  0.27612000  0.25174000  0.38594000  1
  C  C99  1  0.97451000  0.35356000  0.04028000  1
  C  C100  1  0.25160000  0.19517000  0.33252000  1
  C  C101  1  0.70163000  0.39120000  0.99224000  1
  C  C102  1  0.65406000  0.38221000  0.94284000  1
  C  C103  1  0.28880000  0.34937000  0.97441000  1
  C  C104  1  0.18042000  0.34999000  0.93809000  1
  C  C105  1  0.07385000  0.98504000  0.23442000  1
  C  C106  1  0.69193000  0.40904000  0.49224000  1
  C  C107  1  0.64422000  0.39945000  0.44264000  1
  C  C108  1  0.29472000  0.38645000  0.51643000  1
  C  C109  1  0.38772000  0.37790000  0.06329000  1
  C  C110  1  0.01737000  0.46206000  0.56999000  1
  C  C111  1  0.76038000  0.46302000  0.03297000  1
  C  C112  1  0.67292000  0.44103000  0.93132000  1
  C  C113  1  0.75340000  0.48007000  0.53136000  1
  C  C114  1  0.66460000  0.45576000  0.42924000  1
  C  C115  1  0.33783000  0.45684000  0.52391000  1
  C  C116  1  0.23180000  0.45016000  0.46193000  1
  C  C117  1  0.42464000  0.46809000  0.47625000  1
  C  C118  1  0.31990000  0.41116000  0.96812000  1
  C  C119  1  0.28348000  0.44505000  0.94974000  1
  C  C120  1  0.21470000  0.41711000  0.93794000  1
  C  C121  1  0.17917000  0.46057000  0.92867000  1
  C  C122  1  0.11892000  0.42428000  0.86985000  1
  C  C123  1  0.35197000  0.37670000  0.09177000  1
  C  C124  1  0.01196000  0.43842000  0.06266000  1
  C  C125  1  0.85194000  0.42135000  0.92502000  1
  C  C126  1  0.09135000  0.47459000  0.85923000  1
  C  C127  1  0.73709000  0.51023000  0.97019000  1
  C  C128  1  0.73040000  0.52372000  0.46660000  1
  C  C129  1  0.30582000  0.49078000  0.49864000  1
  C  C130  1  0.43758000  0.45312000  0.52293000  1
  C  C131  1  0.82179000  0.46988000  0.91590000  1
  C  C132  1  0.77676000  0.52306000  0.02236000  1
  C  C133  1  0.77158000  0.53795000  0.51891000  1
  C  C134  1  0.31890000  0.51124000  0.94488000  1
  C  C135  1  0.29089000  0.50814000  0.89513000  1
  C  C136  1  0.34865000  0.56984000  0.51218000  1
  C  C137  1  0.35346000  0.58706000  0.47396000  1
  C  C138  1  0.41743000  0.49152000  0.55511000  1
  C  C139  1  0.75683000  0.57890000  0.45047000  1
  C  C140  1  0.84266000  0.54182000  0.44884000  1
  C  C141  1  0.76516000  0.56679000  0.95533000  1
  C  C142  1  0.86251000  0.54239000  0.96745000  1
  C  C143  1  0.80103000  0.03455000  0.29769000  1
  C  C144  1  0.79649000  0.00160000  0.79779000  1
  C  C145  1  0.75911000  0.01582000  0.35595000  1
  C  C146  1  0.73790000  0.00750000  0.30107000  1
  C  C147  1  0.77062000  0.98867000  0.86497000  1
  C  C148  1  0.07363000  0.98337000  0.19035000  1
  C  C149  1  0.31130000  0.98670000  0.59264000  1
  C  C150  1  0.37987000  0.57818000  0.99028000  1
  C  C151  1  0.40882000  0.64285000  0.98638000  1
  C  C152  1  0.37418000  0.64208000  0.93759000  1
  C  C153  1  0.31713000  0.57377000  0.89169000  1
  C  C154  1  0.60237000  0.84891000  0.98236000  1
  C  C155  1  0.54832000  0.79237000  0.92970000  1
  C  C156  1  0.47978000  0.74666000  0.91461000  1
  C  C157  1  0.46416000  0.75712000  0.95177000  1
  C  C158  1  0.51785000  0.81502000  0.00441000  1
  C  C159  1  0.58687000  0.86019000  0.01970000  1
  C  C160  1  0.28077000  0.80389000  0.96036000  1
  C  C161  1  0.28826000  0.80034000  0.91908000  1
  C  C162  1  0.32757000  0.77246000  0.91212000  1
  C  C163  1  0.36108000  0.74957000  0.94707000  1
  C  C164  1  0.35911000  0.76011000  0.99152000  1
  C  C165  1  0.31852000  0.78654000  0.99774000  1
  C  C166  1  0.38206000  0.62808000  0.56261000  1
  C  C167  1  0.42107000  0.70277000  0.57510000  1
  C  C168  1  0.42439000  0.72029000  0.53662000  1
  C  C169  1  0.39066000  0.66186000  0.48590000  1
  C  C170  1  0.59640000  0.85720000  0.50197000  1
  C  C171  1  0.53954000  0.86716000  0.48160000  1
  C  C172  1  0.49052000  0.84341000  0.49366000  1
  C  C173  1  0.50374000  0.81997000  0.53257000  1
  C  C174  1  0.56498000  0.81769000  0.55697000  1
  C  C175  1  0.61032000  0.83494000  0.54115000  1
  C  C176  1  0.31821000  0.88001000  0.51820000  1
  C  C177  1  0.39149000  0.92932000  0.54544000  1
  C  C178  1  0.43631000  0.90238000  0.55689000  1
  C  C179  1  0.40779000  0.82488000  0.53685000  1
  C  C180  1  0.33389000  0.77562000  0.50981000  1
  C  C181  1  0.29025000  0.80353000  0.50217000  1
  C  C182  1  0.86051000  0.75534000  0.93796000  1
  C  C183  1  0.84121000  0.92970000  0.97883000  1
  C  C184  1  0.09782000  0.90542000  0.93032000  1
  C  C185  1  0.84782000  0.76244000  0.42708000  1
  C  C186  1  0.80038000  0.91998000  0.45130000  1
  C  C187  1  0.08869000  0.92660000  0.43339000  1
  C  C188  1  0.95972000  0.92808000  0.64245000  1
  C  C189  1  0.96150000  0.93110000  0.68732000  1
  C  C190  1  0.92790000  0.80795000  0.58515000  1
  C  C191  1  0.64526000  0.87607000  0.48578000  1
  C  C192  1  0.62423000  0.83072000  0.43459000  1
  C  C193  1  0.67540000  0.84633000  0.42379000  1
  C  C194  1  0.74543000  0.90895000  0.46160000  1
  C  C195  1  0.76253000  0.95996000  0.50922000  1
  C  C196  1  0.71465000  0.93921000  0.52283000  1
  C  C197  1  0.54674000  0.77019000  0.38961000  1
  C  C198  1  0.52616000  0.69042000  0.38043000  1
  C  C199  1  0.53472000  0.67945000  0.42776000  1
  C  C200  1  0.26887000  0.90525000  0.49880000  1
  C  C201  1  0.25757000  0.94496000  0.53287000  1
  C  C202  1  0.19652000  0.94822000  0.51079000  1
  C  C203  1  0.14570000  0.91086000  0.45552000  1
  C  C204  1  0.15531000  0.86642000  0.42228000  1
  C  C205  1  0.22110000  0.87367000  0.44395000  1
  C  C206  1  0.09383000  0.80235000  0.36693000  1
  C  C207  1  0.09124000  0.82509000  0.32468000  1
  C  C208  1  0.02529000  0.76341000  0.26925000  1
  C  C209  1  0.67669000  0.88644000  0.99987000  1
  C  C210  1  0.70721000  0.95037000  0.99478000  1
  C  C211  1  0.76550000  0.96762000  0.99224000  1
  C  C212  1  0.79391000  0.92288000  0.99567000  1
  C  C213  1  0.76933000  0.86552000  0.00833000  1
  C  C214  1  0.71192000  0.84931000  0.01157000  1
  C  C215  1  0.68302000  0.00466000  0.99763000  1
  C  C216  1  0.80284000  0.82040000  0.01790000  1
  C  C217  1  0.65263000  0.01154000  0.94687000  1
  C  C218  1  0.85655000  0.85122000  0.07710000  1
  C  C219  1  0.58395000  0.93904000  0.89900000  1
  C  C220  1  0.89023000  0.80568000  0.08689000  1
  C  C221  1  0.23398000  0.82668000  0.96469000  1
  C  C222  1  0.16005000  0.77441000  0.93496000  1
  C  C223  1  0.11542000  0.80108000  0.92988000  1
  C  C224  1  0.14369000  0.87832000  0.95406000  1
  C  C225  1  0.21791000  0.92828000  0.99297000  1
  C  C226  1  0.26261000  0.90248000  0.99576000  1
  C  C227  1  0.12889000  0.69059000  0.91276000  1
  C  C228  1  0.07694000  0.64641000  0.85192000  1
  C  C229  1  0.11361000  0.66267000  0.82472000  1
  C  C230  1  0.81527000  0.59368000  0.44774000  1
  C  C231  1  0.84214000  0.65150000  0.43668000  1
  C  C232  1  0.80952000  0.69134000  0.42569000  1
  C  C233  1  0.74517000  0.66839000  0.42062000  1
  C  C234  1  0.72145000  0.61508000  0.43570000  1
  C  C235  1  0.69667000  0.69201000  0.39227000  1
  C  C236  1  0.92249000  0.58228000  0.49232000  1
  C  C237  1  0.65365000  0.64390000  0.33179000  1
  C  C238  1  0.94121000  0.61340000  0.54823000  1
  C  C239  1  0.62074000  0.67896000  0.30148000  1
  C  C240  1  0.73949000  0.97411000  0.80763000  1
  C  C241  1  0.82137000  0.68188000  0.93370000  1
  C  C242  1  0.75116000  0.65078000  0.91948000  1
  C  C243  1  0.72649000  0.59793000  0.93502000  1
  C  C244  1  0.82879000  0.58764000  0.95924000  1
  C  C245  1  0.85778000  0.64739000  0.95066000  1
  C  C246  1  0.70196000  0.66967000  0.88411000  1
  C  C247  1  0.62283000  0.62417000  0.86208000  1
  C  C248  1  0.60750000  0.65699000  0.90026000  1
  N  N1  1  0.10093000  0.13473000  0.78630000  1
  N  N2  1  0.97241000  0.07480000  0.14646000  1
  N  N3  1  0.69503000  0.32718000  0.99989000  1
  N  N4  1  0.68411000  0.34550000  0.50076000  1
  N  N5  1  0.10346000  0.94932000  0.26093000  1
  N  N6  1  0.39243000  0.71082000  0.93469000  1
  N  N7  1  0.45522000  0.79759000  0.54755000  1
  N  N8  1  0.90527000  0.86025000  0.59234000  1
  O  O1  1  0.00483000  0.04402000  0.80973000  1
  O  O2  1  0.25109000  0.13836000  0.99221000  1
  O  O3  1  0.17385000  0.07120000  0.90235000  1
  O  O4  1  0.08148000  0.09714000  0.96277000  1
  O  O5  1  0.11899000  0.18540000  0.90571000  1
  O  O6  1  0.93032000  0.02935000  0.92648000  1
  O  O7  1  0.05717000  0.06934000  0.10774000  1
  O  O8  1  0.96154000  0.10103000  0.00801000  1
  O  O9  1  0.04699000  0.01231000  0.01344000  1
  O  O10  1  0.03959000  0.07529000  0.32397000  1
  O  O11  1  0.24606000  0.15943000  0.50954000  1
  O  O12  1  0.16744000  0.06883000  0.42322000  1
  O  O13  1  0.07219000  0.11677000  0.46719000  1
  O  O14  1  0.13606000  0.21096000  0.42330000  1
  O  O15  1  0.91774000  0.05008000  0.42159000  1
  O  O16  1  0.00454000  0.05323000  0.59305000  1
  O  O17  1  0.92890000  0.10175000  0.49840000  1
  O  O18  1  0.02245000  0.02274000  0.50834000  1
  O  O19  1  0.19734000  0.23752000  0.99604000  1
  O  O20  1  0.19394000  0.26039000  0.51329000  1
  O  O21  1  0.03404000  0.95618000  0.80069000  1
  O  O22  1  0.05061000  0.86989000  0.87870000  1
  O  O23  1  0.98797000  0.98041000  0.87322000  1
  O  O24  1  0.10635000  0.96645000  0.96012000  1
  O  O25  1  0.92627000  0.80585000  0.98075000  1
  O  O26  1  0.83029000  0.76874000  0.89886000  1
  O  O27  1  0.81297000  0.89616000  0.92798000  1
  O  O28  1  0.90702000  0.95152000  0.01347000  1
  O  O29  1  0.95446000  0.89659000  0.92507000  1
  O  O30  1  0.02442000  0.94634000  0.07962000  1
  O  O31  1  0.00920000  0.95319000  0.29315000  1
  O  O32  1  0.03647000  0.88687000  0.38290000  1
  O  O33  1  0.98465000  0.00606000  0.37457000  1
  O  O34  1  0.09524000  0.98612000  0.46341000  1
  O  O35  1  0.91560000  0.81076000  0.46638000  1
  O  O36  1  0.81573000  0.77354000  0.38689000  1
  O  O37  1  0.78067000  0.89129000  0.40219000  1
  O  O38  1  0.86404000  0.94019000  0.48960000  1
  O  O39  1  0.93836000  0.91144000  0.41690000  1
  O  O40  1  0.00233000  0.94416000  0.56682000  1
