# generated using pymatgen
data_VH8C15NO5
_symmetry_space_group_name_H-M   'P 1'
_cell_length_a   21.87390000
_cell_length_b   6.81800000
_cell_length_c   19.67219900
_cell_angle_alpha   90.00000000
_cell_angle_beta   100.39908600
_cell_angle_gamma   90.00000000
_symmetry_Int_Tables_number   1
_chemical_formula_structural   VH8C15NO5
_chemical_formula_sum   'V4 H32 C60 N4 O20'
_cell_volume   2885.64779717
_cell_formula_units_Z   4
loop_
 _symmetry_equiv_pos_site_id
 _symmetry_equiv_pos_as_xyz
  1  'x, y, z'
loop_
 _atom_site_type_symbol
 _atom_site_label
 _atom_site_symmetry_multiplicity
 _atom_site_fract_x
 _atom_site_fract_y
 _atom_site_fract_z
 _atom_site_occupancy
  V  V1  1  0.48906600  0.17140700  0.49516800  1
  V  V2  1  0.51093400  0.67140900  0.50483200  1
  V  V3  1  0.01147300  0.67807100  0.00461700  1
  V  V4  1  0.98852700  0.17807300  0.99538300  1
  H  H1  1  0.94291500  0.65136600  0.78774300  1
  H  H2  1  0.05708400  0.15136600  0.21225700  1
  H  H3  1  0.86840200  0.57876400  0.68174900  1
  H  H4  1  0.13159800  0.07876400  0.31825100  1
  H  H5  1  0.81599300  0.04778600  0.85162900  1
  H  H6  1  0.18400600  0.54778600  0.14837100  1
  H  H7  1  0.55557200  0.18531800  0.71142100  1
  H  H8  1  0.44442800  0.68531800  0.28857900  1
  H  H9  1  0.73118500  0.13474500  0.84004900  1
  H  H10  1  0.26881500  0.63474500  0.15995100  1
  H  H11  1  0.62790800  0.26857300  0.81756000  1
  H  H12  1  0.37209200  0.76857200  0.18244000  1
  H  H13  1  0.84265500  0.10241300  0.29977000  1
  H  H14  1  0.15734500  0.60241300  0.70023000  1
  H  H15  1  0.79120600  0.78799300  0.36246600  1
  H  H16  1  0.20879300  0.28799300  0.63753300  1
  H  H17  1  0.72339400  0.26625900  0.26177400  1
  H  H18  1  0.27660500  0.76625900  0.73822600  1
  H  H19  1  0.70785000  0.05848400  0.13643200  1
  H  H20  1  0.29215000  0.55848400  0.86356800  1
  H  H21  1  0.65640500  0.74417000  0.19909600  1
  H  H22  1  0.34359500  0.24417000  0.80090400  1
  H  H23  1  0.77566700  0.58035100  0.23705200  1
  H  H24  1  0.22433300  0.08035100  0.76294800  1
  H  H25  1  0.73991600  0.57746600  0.55756700  1
  H  H26  1  0.78709600  0.45902500  0.62202300  1
  H  H27  1  0.26008400  0.07746600  0.44243300  1
  H  H28  1  0.21290400  0.95902500  0.37797700  1
  H  H29  1  0.68130800  0.80692900  0.53260500  1
  H  H30  1  0.65099500  0.61110800  0.56820100  1
  H  H31  1  0.31869100  0.30692900  0.46739500  1
  H  H32  1  0.34900500  0.11110800  0.43179900  1
  C  C1  1  0.42404500  0.45098400  0.58016100  1
  C  C2  1  0.57595400  0.95098500  0.41983900  1
  C  C3  1  0.42555600  0.45918400  0.38970500  1
  C  C4  1  0.57444400  0.95918400  0.61029500  1
  C  C5  1  0.85623000  0.68152400  0.71897800  1
  C  C6  1  0.14377000  0.18152500  0.28102200  1
  C  C7  1  0.88342900  0.85861100  0.82434300  1
  C  C8  1  0.11657100  0.35861000  0.17565700  1
  C  C9  1  0.60167100  0.12223200  0.72112000  1
  C  C10  1  0.39832900  0.62223200  0.27888000  1
  C  C11  1  0.64228200  0.16960900  0.78049900  1
  C  C12  1  0.35771800  0.66960900  0.21950100  1
  C  C13  1  0.70140500  0.09313000  0.79267300  1
  C  C14  1  0.29859500  0.59312900  0.20732700  1
  C  C15  1  0.72086500  0.96890900  0.74491300  1
  C  C16  1  0.27913500  0.46891000  0.25508700  1
  C  C17  1  0.67908700  0.91804600  0.68539300  1
  C  C18  1  0.32091300  0.41804600  0.31460700  1
  C  C19  1  0.78141600  0.89551200  0.75555500  1
  C  C20  1  0.21858400  0.39551300  0.24444400  1
  C  C21  1  0.79821200  0.76674000  0.70782100  1
  C  C22  1  0.20178800  0.26674000  0.29217900  1
  C  C23  1  0.75742400  0.72161100  0.64822200  1
  C  C24  1  0.24257500  0.22161100  0.35177800  1
  C  C25  1  0.69849200  0.80006800  0.63616500  1
  C  C26  1  0.30150800  0.30006800  0.36383500  1
  C  C27  1  0.82561000  0.94639900  0.81308300  1
  C  C28  1  0.17439000  0.44639900  0.18691700  1
  C  C29  1  0.89807800  0.72288400  0.77810900  1
  C  C30  1  0.10192200  0.22288400  0.22189200  1
  C  C31  1  0.61902700  0.99337000  0.67419900  1
  C  C32  1  0.38097300  0.49337000  0.32580100  1
  C  C33  1  0.77222700  0.84956900  0.31078300  1
  C  C34  1  0.22777300  0.34956900  0.68921700  1
  C  C35  1  0.80002800  0.02085900  0.27686100  1
  C  C36  1  0.19997100  0.52085900  0.72313900  1
  C  C37  1  0.87714500  0.88993200  0.12518600  1
  C  C38  1  0.12285500  0.38993300  0.87481400  1
  C  C39  1  0.62186600  0.95787800  0.37367500  1
  C  C40  1  0.37813400  0.45787800  0.62632500  1
  C  C41  1  0.76369200  0.73681200  0.24276100  1
  C  C42  1  0.23630800  0.23681100  0.75723900  1
  C  C43  1  0.79095300  0.90820200  0.20937300  1
  C  C44  1  0.20904700  0.40820200  0.79062600  1
  C  C45  1  0.69902300  0.82570100  0.22204000  1
  C  C46  1  0.30097700  0.32570100  0.77796000  1
  C  C47  1  0.70809200  0.93835500  0.28953000  1
  C  C48  1  0.29190700  0.43835500  0.71047000  1
  C  C49  1  0.72682500  0.99698100  0.18812500  1
  C  C50  1  0.27317400  0.49698100  0.81187600  1
  C  C51  1  0.73536100  0.10974600  0.25613600  1
  C  C52  1  0.26463900  0.60974600  0.74386400  1
  C  C53  1  0.83846600  0.89438900  0.16320100  1
  C  C54  1  0.16153400  0.39439000  0.83679900  1
  C  C55  1  0.66055000  0.95255600  0.33566900  1
  C  C56  1  0.33944900  0.45255700  0.66433100  1
  C  C57  1  0.07268900  0.39124100  0.11138000  1
  C  C58  1  0.92731100  0.89124100  0.88862000  1
  C  C59  1  0.07690600  0.39879100  0.92088200  1
  C  C60  1  0.92309400  0.89879300  0.07911800  1
  N  N1  1  0.77700500  0.59546800  0.59857100  1
  N  N2  1  0.22299500  0.09546800  0.40142900  1
  N  N3  1  0.65842800  0.76227300  0.57218300  1
  N  N4  1  0.34157100  0.26227300  0.42781700  1
  O  O1  1  0.45166300  0.62269500  0.41849400  1
  O  O2  1  0.54833700  0.12269600  0.58150600  1
  O  O3  1  0.43069200  0.27485700  0.55219800  1
  O  O4  1  0.56930800  0.77485700  0.44780200  1
  O  O5  1  0.43155000  0.27586500  0.41399100  1
  O  O6  1  0.56845000  0.77586500  0.58600900  1
  O  O7  1  0.54977000  0.12145800  0.43415200  1
  O  O8  1  0.45023000  0.62145800  0.56584800  1
  O  O9  1  0.53860900  0.44256500  0.51043200  1
  O  O10  1  0.46139100  0.94256600  0.48956800  1
  O  O11  1  0.05009800  0.22951800  0.93530200  1
  O  O12  1  0.94990100  0.72951800  0.06469900  1
  O  O13  1  0.06832200  0.57372900  0.08632700  1
  O  O14  1  0.93167800  0.07373000  0.91367200  1
  O  O15  1  0.07068000  0.57545700  0.94849600  1
  O  O16  1  0.92932000  0.07545400  0.05150400  1
  O  O17  1  0.95303500  0.72759300  0.91766000  1
  O  O18  1  0.04696500  0.22759300  0.08234000  1
  O  O19  1  0.96104200  0.40698000  0.98931600  1
  O  O20  1  0.03895800  0.90698000  0.01068300  1
