data_DB0-m3_o11_o28_f0_pcu.sym.18_repeat
_audit_creation_date              2024-02-23
_audit_creation_method            'Materials Studio'
_symmetry_space_group_name_H-M    'P1'
_symmetry_Int_Tables_number       1
_symmetry_cell_setting            triclinic
loop_
_symmetry_equiv_pos_as_xyz
  x,y,z
_cell_length_a                    23.4477
_cell_length_b                    11.1387
_cell_length_c                    9.9078
_cell_angle_alpha                 89.9974
_cell_angle_beta                  89.9814
_cell_angle_gamma                 90.0113
loop_
_atom_site_label
_atom_site_type_symbol
_atom_site_fract_x
_atom_site_fract_y
_atom_site_fract_z
_atom_site_U_iso_or_equiv
_atom_site_adp_type
_atom_site_occupancy
O1     O     0.50032   0.31589   0.63619   0.00000  Uiso   1.00
O2     O     0.50220   0.31480   0.40374   0.00000  Uiso   1.00
C1     C     0.50110   0.25927   0.52031   0.00000  Uiso   1.00
O3     O     0.41510   0.49478   0.62641   0.00000  Uiso   1.00
O4     O     0.41701   0.49345   0.39402   0.00000  Uiso   1.00
C2     C     0.38931   0.49397   0.50909   0.00000  Uiso   1.00
Zn1    Zn    0.49949   0.49521   0.67001   0.00000  Uiso   1.00
Zn2    Zn    0.50244   0.49307   0.36300   0.00000  Uiso   1.00
O5     O     0.50033   0.67336   0.62978   0.00000  Uiso   1.00
O6     O     0.50221   0.67272   0.39637   0.00000  Uiso   1.00
O7     O     0.58496   0.49503   0.63938   0.00000  Uiso   1.00
O8     O     0.58686   0.49368   0.40620   0.00000  Uiso   1.00
C3     C     0.50111   0.72892   0.51324   0.00000  Uiso   1.00
C4     C     0.61260   0.49428   0.52388   0.00000  Uiso   1.00
C5     C     0.88378   0.57976   0.58093   0.00000  Uiso   1.00
N1     N     0.85433   0.48841   0.52527   0.00000  Uiso   1.00
C6     C     0.88194   0.39632   0.46585   0.00000  Uiso   1.00
C7     C     0.94096   0.39470   0.46045   0.00000  Uiso   1.00
C8     C     0.97163   0.48708   0.51613   0.00000  Uiso   1.00
C9     C     0.94277   0.58031   0.57727   0.00000  Uiso   1.00
C10    C     0.96920   0.30133   0.39861   0.00000  Uiso   1.00
C11    C     0.02812   0.29845   0.39114   0.00000  Uiso   1.00
C12    C     0.05998   0.39259   0.44913   0.00000  Uiso   1.00
C13    C     0.03064   0.48650   0.51059   0.00000  Uiso   1.00
C14    C     0.06041   0.58090   0.56722   0.00000  Uiso   1.00
C15    C     0.03146   0.67453   0.62806   0.00000  Uiso   1.00
C16    C     0.97292   0.67427   0.63320   0.00000  Uiso   1.00
C17    C     0.11984   0.39668   0.45003   0.00000  Uiso   1.00
N2     N     0.14759   0.49069   0.50524   0.00000  Uiso   1.00
C18    C     0.11911   0.58197   0.56283   0.00000  Uiso   1.00
O9     O     0.85553   0.67221   0.63683   0.00000  Uiso   1.00
O10    O     0.85180   0.30475   0.41373   0.00000  Uiso   1.00
H1     H     0.94488   0.22977   0.35295   0.00000  Uiso   1.00
O11    O     0.15141   0.30640   0.40069   0.00000  Uiso   1.00
O12    O     0.14820   0.67517   0.61463   0.00000  Uiso   1.00
H2     H     0.05396   0.74921   0.67285   0.00000  Uiso   1.00
H3     H     0.95149   0.74860   0.68153   0.00000  Uiso   1.00
C19    C     0.23847   0.49274   0.38556   0.00000  Uiso   1.00
H4     H     0.21593   0.49363   0.29038   0.00000  Uiso   1.00
C20    C     0.29732   0.49359   0.38624   0.00000  Uiso   1.00
H5     H     0.31980   0.49437   0.29102   0.00000  Uiso   1.00
C21    C     0.32673   0.49358   0.50726   0.00000  Uiso   1.00
C22    C     0.29657   0.49292   0.62730   0.00000  Uiso   1.00
H6     H     0.31833   0.49259   0.72340   0.00000  Uiso   1.00
C23    C     0.23780   0.49216   0.62629   0.00000  Uiso   1.00
H7     H     0.21480   0.49038   0.72086   0.00000  Uiso   1.00
C24    C     0.20848   0.49194   0.50558   0.00000  Uiso   1.00
C25    C     0.76370   0.49284   0.64620   0.00000  Uiso   1.00
H8     H     0.78639   0.49202   0.74117   0.00000  Uiso   1.00
C26    C     0.70482   0.49419   0.64612   0.00000  Uiso   1.00
H9     H     0.68251   0.49528   0.74156   0.00000  Uiso   1.00
C27    C     0.67518   0.49365   0.52540   0.00000  Uiso   1.00
C28    C     0.70513   0.49200   0.40509   0.00000  Uiso   1.00
H10    H     0.68324   0.49191   0.30916   0.00000  Uiso   1.00
C29    C     0.76387   0.49039   0.40549   0.00000  Uiso   1.00
H11    H     0.78667   0.49010   0.31063   0.00000  Uiso   1.00
C30    C     0.79345   0.49055   0.52585   0.00000  Uiso   1.00
C31    C     0.50204   0.92878   0.40741   0.00000  Uiso   1.00
C32    C     0.50117   0.86034   0.51834   0.00000  Uiso   1.00
H12    H     0.50276   0.88598   0.30922   0.00000  Uiso   1.00
H13    H     0.50039   0.89873   0.61822   0.00000  Uiso   1.00
C33    C     0.50201   0.06188   0.41024   0.00000  Uiso   1.00
C34    C     0.50120   0.12771   0.52362   0.00000  Uiso   1.00
H14    H     0.50265   0.10711   0.31345   0.00000  Uiso   1.00
H15    H     0.50054   0.08746   0.62261   0.00000  Uiso   1.00
C35    C     0.53133   0.56530   0.94085   0.00000  Uiso   1.00
N3     N     0.49712   0.49929   0.87176   0.00000  Uiso   1.00
H16    H     0.56304   0.61892   0.88887   0.00000  Uiso   1.00
H17    H     0.46295   0.46275   0.92195   0.00000  Uiso   1.00
C36    C     0.52666   0.57536   0.08944   0.00000  Uiso   1.00
N4     N     0.50560   0.49015   0.16128   0.00000  Uiso   1.00
H18    H     0.54364   0.65451   0.13870   0.00000  Uiso   1.00
H19    H     0.49688   0.41088   0.11258   0.00000  Uiso   1.00
C37    C     0.05301   0.19307   0.31674   0.00000  Uiso   1.00
C38    C     0.07158   0.22951   0.17558   0.00000  Uiso   1.00
H20    H     0.03334   0.25367   0.11560   0.00000  Uiso   1.00
H21    H     0.10065   0.30778   0.17795   0.00000  Uiso   1.00
H22    H     0.09343   0.15279   0.12645   0.00000  Uiso   1.00
H23    H     0.08752   0.14860   0.37407   0.00000  Uiso   1.00
H24    H     0.02001   0.12274   0.30442   0.00000  Uiso   1.00
