# generated using pymatgen
data_ZnH28(C6O)4
_symmetry_space_group_name_H-M   'P 1'
_cell_length_a   30.28684900
_cell_length_b   30.28687700
_cell_length_c   32.22657600
_cell_angle_alpha   90.00000000
_cell_angle_beta   90.00000000
_cell_angle_gamma   90.00000000
_symmetry_Int_Tables_number   1
_chemical_formula_structural   ZnH28(C6O)4
_chemical_formula_sum   'Zn12 H336 C288 O48'
_cell_volume   29561.24707347
_cell_formula_units_Z   12
loop_
 _symmetry_equiv_pos_site_id
 _symmetry_equiv_pos_as_xyz
  1  'x, y, z'
loop_
 _atom_site_type_symbol
 _atom_site_label
 _atom_site_symmetry_multiplicity
 _atom_site_fract_x
 _atom_site_fract_y
 _atom_site_fract_z
 _atom_site_occupancy
  Zn  Zn1  1  0.49984300  0.05044800  0.50011500  1
  Zn  Zn2  1  0.95026100  0.49978300  0.49993100  1
  Zn  Zn3  1  0.49970400  0.95027600  0.50015900  1
  Zn  Zn4  1  0.05043300  0.49975100  0.49997600  1
  Zn  Zn5  1  0.00024900  0.54992200  0.99999500  1
  Zn  Zn6  1  0.44975100  0.00018500  0.00020900  1
  Zn  Zn7  1  0.00016900  0.44975000  0.99990200  1
  Zn  Zn8  1  0.54992300  0.00026000  0.00007600  1
  Zn  Zn9  1  0.99986100  0.99985400  0.54681900  1
  Zn  Zn10  1  0.99987700  0.99986700  0.45289800  1
  Zn  Zn11  1  0.50014400  0.50001100  0.04700600  1
  Zn  Zn12  1  0.49999700  0.50015600  0.95308400  1
  H  H1  1  0.54918900  0.95038000  0.71217700  1
  H  H2  1  0.05031900  0.54990900  0.71179600  1
  H  H3  1  0.44974600  0.04984800  0.71175300  1
  H  H4  1  0.95086000  0.45045600  0.71175500  1
  H  H5  1  0.55008000  0.05027100  0.28828400  1
  H  H6  1  0.04976800  0.44978100  0.28834900  1
  H  H7  1  0.45049700  0.95094200  0.28834900  1
  H  H8  1  0.95043100  0.54935600  0.28790500  1
  H  H9  1  0.05001100  0.44963700  0.21199500  1
  H  H10  1  0.55022800  0.05006600  0.21193300  1
  H  H11  1  0.95057000  0.54910700  0.21155400  1
  H  H12  1  0.45074700  0.95063500  0.21199500  1
  H  H13  1  0.05011600  0.55007700  0.78814600  1
  H  H14  1  0.54895800  0.95051800  0.78852800  1
  H  H15  1  0.95055800  0.45072300  0.78810900  1
  H  H16  1  0.44961700  0.05008800  0.78810700  1
  H  H17  1  0.72146400  0.99649600  0.43509300  1
  H  H18  1  0.00393800  0.72131100  0.43442300  1
  H  H19  1  0.27822400  0.00425800  0.43461200  1
  H  H20  1  0.99650900  0.27798500  0.43507200  1
  H  H21  1  0.72140800  0.00284800  0.56538200  1
  H  H22  1  0.00316200  0.27811100  0.56532200  1
  H  H23  1  0.27788500  0.99756600  0.56486000  1
  H  H24  1  0.99754900  0.72154800  0.56471100  1
  H  H25  1  0.22185700  0.49697300  0.93478800  1
  H  H26  1  0.50313400  0.22190300  0.93500900  1
  H  H27  1  0.77841600  0.50300400  0.93499400  1
  H  H28  1  0.49611400  0.77857600  0.93486000  1
  H  H29  1  0.22188800  0.50314200  0.06508500  1
  H  H30  1  0.50300600  0.77843000  0.06509800  1
  H  H31  1  0.77856300  0.49613800  0.06523400  1
  H  H32  1  0.49699200  0.22186900  0.06530700  1
  H  H33  1  0.77670400  0.05273800  0.54203500  1
  H  H34  1  0.94757500  0.77666400  0.54129400  1
  H  H35  1  0.22280200  0.94764100  0.54139400  1
  H  H36  1  0.05293500  0.22274400  0.54201700  1
  H  H37  1  0.77685600  0.94677700  0.45842000  1
  H  H38  1  0.94683600  0.22262200  0.45843400  1
  H  H39  1  0.22258000  0.05377000  0.45784500  1
  H  H40  1  0.05356600  0.77688200  0.45771300  1
  H  H41  1  0.27734200  0.55286400  0.04185700  1
  H  H42  1  0.44699600  0.27715300  0.04207400  1
  H  H43  1  0.72312400  0.44654000  0.04181900  1
  H  H44  1  0.55274700  0.72319400  0.04160300  1
  H  H45  1  0.27714300  0.44698900  0.95802700  1
  H  H46  1  0.44652300  0.72313900  0.95827900  1
  H  H47  1  0.72318400  0.55275400  0.95848400  1
  H  H48  1  0.55286000  0.27735800  0.95823200  1
  H  H49  1  0.60963300  0.02309900  0.42053700  1
  H  H50  1  0.60648200  0.96421100  0.42639700  1
  H  H51  1  0.68216600  0.01045800  0.38019100  1
  H  H52  1  0.64469500  0.91554700  0.37767800  1
  H  H53  1  0.69317100  0.93025400  0.40685500  1
  H  H54  1  0.69305900  0.93610500  0.35130100  1
  H  H55  1  0.59517100  0.97164900  0.34911200  1
  H  H56  1  0.64149300  0.98815400  0.31733500  1
  H  H57  1  0.61221700  0.02888000  0.34743700  1
  H  H58  1  0.97750500  0.60940000  0.42010500  1
  H  H59  1  0.03639700  0.60635300  0.42597500  1
  H  H60  1  0.99003900  0.68185300  0.37960300  1
  H  H61  1  0.08500100  0.64450700  0.37716900  1
  H  H62  1  0.07022600  0.69303200  0.40624300  1
  H  H63  1  0.06437600  0.69277900  0.35068900  1
  H  H64  1  0.02895500  0.59482300  0.34872500  1
  H  H65  1  0.01241200  0.64104500  0.31683600  1
  H  H66  1  0.97170800  0.61180700  0.34699600  1
  H  H67  1  0.39035700  0.97775600  0.42053300  1
  H  H68  1  0.39295300  0.03671900  0.42596300  1
  H  H69  1  0.31771500  0.98951500  0.38000100  1
  H  H70  1  0.35485400  0.08450600  0.37634800  1
  H  H71  1  0.30655500  0.07008100  0.40589500  1
  H  H72  1  0.30644400  0.06342700  0.35041100  1
  H  H73  1  0.40467400  0.02822100  0.34873000  1
  H  H74  1  0.35847000  0.01129700  0.31699800  1
  H  H75  1  0.38774500  0.97094100  0.34753800  1
  H  H76  1  0.02311100  0.39006600  0.42064700  1
  H  H77  1  0.96414500  0.39268600  0.42603800  1
  H  H78  1  0.01135900  0.31726700  0.38034900  1
  H  H79  1  0.91639500  0.35444700  0.37647300  1
  H  H80  1  0.93075000  0.30627000  0.40622200  1
  H  H81  1  0.93747300  0.30591000  0.35074700  1
  H  H82  1  0.97274200  0.40413900  0.34877200  1
  H  H83  1  0.98964600  0.35780600  0.31719600  1
  H  H84  1  0.03000800  0.38715500  0.34766800  1
  H  H85  1  0.60972100  0.97583300  0.57991900  1
  H  H86  1  0.60625200  0.03469200  0.57397000  1
  H  H87  1  0.68213500  0.98892000  0.62030400  1
  H  H88  1  0.64426100  0.08368400  0.62251100  1
  H  H89  1  0.69286600  0.06907800  0.59347800  1
  H  H90  1  0.69264800  0.06341300  0.64904700  1
  H  H91  1  0.59497800  0.02748100  0.65125700  1
  H  H92  1  0.64133500  0.01118600  0.68308100  1
  H  H93  1  0.61220100  0.97030800  0.65304000  1
  H  H94  1  0.97607500  0.38999900  0.57966200  1
  H  H95  1  0.03500100  0.39305500  0.57411300  1
  H  H96  1  0.98845700  0.31739300  0.62005900  1
  H  H97  1  0.08325300  0.35507700  0.62338500  1
  H  H98  1  0.06896300  0.30669000  0.59390600  1
  H  H99  1  0.06256700  0.30655300  0.64941300  1
  H  H100  1  0.02684500  0.40445700  0.65141000  1
  H  H101  1  0.01016700  0.35810700  0.68306400  1
  H  H102  1  0.96963000  0.38731100  0.65267600  1
  H  H103  1  0.38972400  0.02475200  0.57955400  1
  H  H104  1  0.39279800  0.96582400  0.57402500  1
  H  H105  1  0.31695800  0.01236800  0.61971000  1
  H  H106  1  0.35468500  0.91759900  0.62324400  1
  H  H107  1  0.30642500  0.93182400  0.59355800  1
  H  H108  1  0.30602900  0.93827700  0.64905900  1
  H  H109  1  0.40393700  0.97406600  0.65135800  1
  H  H110  1  0.35745700  0.99070600  0.68286100  1
  H  H111  1  0.38672900  0.03126400  0.65255300  1
  H  H112  1  0.02473100  0.60994100  0.57949300  1
  H  H113  1  0.96587900  0.60637300  0.57353600  1
  H  H114  1  0.01152800  0.68243600  0.61971700  1
  H  H115  1  0.91681600  0.64443600  0.62198400  1
  H  H116  1  0.93136100  0.69298800  0.59284700  1
  H  H117  1  0.93701300  0.69291800  0.64841700  1
  H  H118  1  0.97306900  0.59531300  0.65086000  1
  H  H119  1  0.98931200  0.64177000  0.68257800  1
  H  H120  1  0.03022400  0.61260300  0.65260500  1
  H  H121  1  0.11024100  0.52422500  0.92024800  1
  H  H122  1  0.10663800  0.46536600  0.92612700  1
  H  H123  1  0.18263800  0.51103400  0.87987000  1
  H  H124  1  0.14457700  0.41634700  0.87756500  1
  H  H125  1  0.19320800  0.43082700  0.90661300  1
  H  H126  1  0.19300400  0.43655200  0.85105000  1
  H  H127  1  0.09543400  0.47266500  0.84883300  1
  H  H128  1  0.14183200  0.48894300  0.81705600  1
  H  H129  1  0.11274200  0.52981700  0.84714000  1
  H  H130  1  0.47669900  0.10999300  0.92054400  1
  H  H131  1  0.53560900  0.10699100  0.92628000  1
  H  H132  1  0.48907100  0.18255000  0.88015400  1
  H  H133  1  0.58404300  0.14526000  0.87739100  1
  H  H134  1  0.56933500  0.19369800  0.90662300  1
  H  H135  1  0.56331400  0.19359400  0.85108300  1
  H  H136  1  0.52793900  0.09560000  0.84902200  1
  H  H137  1  0.51129800  0.14188200  0.81725500  1
  H  H138  1  0.47068200  0.11256800  0.84745600  1
  H  H139  1  0.89025000  0.47582100  0.92040700  1
  H  H140  1  0.89337300  0.53473500  0.92603100  1
  H  H141  1  0.81757100  0.48833200  0.88016400  1
  H  H142  1  0.85533900  0.58309500  0.87688300  1
  H  H143  1  0.80700600  0.56881300  0.90644200  1
  H  H144  1  0.80673500  0.56249300  0.85092800  1
  H  H145  1  0.90461400  0.52667100  0.84870800  1
  H  H146  1  0.85818000  0.51010600  0.81711100  1
  H  H147  1  0.88739500  0.46948100  0.84738600  1
  H  H148  1  0.52255200  0.89070100  0.92058200  1
  H  H149  1  0.46359900  0.89327100  0.92611000  1
  H  H150  1  0.51074800  0.81798200  0.88017300  1
  H  H151  1  0.41573700  0.85508000  0.87662000  1
  H  H152  1  0.43023100  0.80684000  0.90622100  1
  H  H153  1  0.43678500  0.80663000  0.85072700  1
  H  H154  1  0.47195200  0.90487600  0.84884500  1
  H  H155  1  0.48883100  0.85862700  0.81714900  1
  H  H156  1  0.52923500  0.88796300  0.84758100  1
  H  H157  1  0.10997900  0.47671200  0.07955500  1
  H  H158  1  0.10697600  0.53562000  0.07380500  1
  H  H159  1  0.18253500  0.48909500  0.11994400  1
  H  H160  1  0.14524600  0.58407000  0.12267900  1
  H  H161  1  0.19368500  0.56935100  0.09345500  1
  H  H162  1  0.19357800  0.56334700  0.14899500  1
  H  H163  1  0.09558600  0.52797700  0.15106500  1
  H  H164  1  0.14186700  0.51134000  0.18283500  1
  H  H165  1  0.11254900  0.47071900  0.15264400  1
  H  H166  1  0.47583500  0.89026400  0.07969100  1
  H  H167  1  0.53474800  0.89338600  0.07405200  1
  H  H168  1  0.48835500  0.81758700  0.11993300  1
  H  H169  1  0.58312300  0.85534700  0.12318300  1
  H  H170  1  0.56882700  0.80701400  0.09363300  1
  H  H171  1  0.56252600  0.80674800  0.14914800  1
  H  H172  1  0.52671400  0.90462600  0.15137700  1
  H  H173  1  0.51015200  0.85819400  0.18297800  1
  H  H174  1  0.46952100  0.88741400  0.15271400  1
  H  H175  1  0.89069200  0.52257800  0.07950200  1
  H  H176  1  0.89325500  0.46362200  0.07399200  1
  H  H177  1  0.81797200  0.51079300  0.11991600  1
  H  H178  1  0.85506400  0.41578100  0.12350000  1
  H  H179  1  0.80682600  0.43026600  0.09389300  1
  H  H180  1  0.80661400  0.43684100  0.14938400  1
  H  H181  1  0.90486400  0.47200300  0.15125400  1
  H  H182  1  0.85861600  0.48889400  0.18294600  1
  H  H183  1  0.88795400  0.52928800  0.15250100  1
  H  H184  1  0.52425100  0.11025000  0.07983700  1
  H  H185  1  0.46539000  0.10665100  0.07397400  1
  H  H186  1  0.51107700  0.18264800  0.12022000  1
  H  H187  1  0.41639000  0.14458700  0.12255700  1
  H  H188  1  0.43085800  0.19321700  0.09350200  1
  H  H189  1  0.43660400  0.19301600  0.14906300  1
  H  H190  1  0.47271900  0.09544300  0.15126700  1
  H  H191  1  0.48900700  0.14184100  0.18304000  1
  H  H192  1  0.52987100  0.11275200  0.15294300  1
  H  H193  1  0.89495900  0.07670100  0.53075000  1
  H  H194  1  0.88078200  0.04824200  0.57766100  1
  H  H195  1  0.81592700  0.11447100  0.53992800  1
  H  H196  1  0.84712300  0.09827800  0.62963400  1
  H  H197  1  0.80325500  0.06624000  0.60705400  1
  H  H198  1  0.79730500  0.12528500  0.61222300  1
  H  H199  1  0.90206900  0.13498700  0.58528100  1
  H  H200  1  0.85613300  0.17274600  0.57982300  1
  H  H201  1  0.88473000  0.15332100  0.53437400  1
  H  H202  1  0.92323300  0.89473400  0.52995500  1
  H  H203  1  0.95223000  0.88104400  0.57669100  1
  H  H204  1  0.88581600  0.81571800  0.53994400  1
  H  H205  1  0.90320300  0.84719100  0.62936800  1
  H  H206  1  0.93504600  0.80336000  0.60648300  1
  H  H207  1  0.87610000  0.79724800  0.61241300  1
  H  H208  1  0.86569100  0.90190600  0.58536100  1
  H  H209  1  0.82799500  0.85584500  0.58047500  1
  H  H210  1  0.84668800  0.88439400  0.53472400  1
  H  H211  1  0.10473100  0.92335000  0.52977400  1
  H  H212  1  0.11796300  0.95256400  0.57649200  1
  H  H213  1  0.18361100  0.88597800  0.54046500  1
  H  H214  1  0.15174200  0.90412900  0.62963500  1
  H  H215  1  0.19577200  0.93564600  0.60667300  1
  H  H216  1  0.20169000  0.87673900  0.61310000  1
  H  H217  1  0.09722500  0.86617500  0.58567100  1
  H  H218  1  0.14329400  0.82843300  0.58116100  1
  H  H219  1  0.11493000  0.84684500  0.53520200  1
  H  H220  1  0.07666800  0.10443300  0.53061500  1
  H  H221  1  0.04797400  0.11824000  0.57747900  1
  H  H222  1  0.11450800  0.18328300  0.54043700  1
  H  H223  1  0.09742100  0.15183500  0.62992400  1
  H  H224  1  0.06580100  0.19592300  0.60718600  1
  H  H225  1  0.12481600  0.20159300  0.61289400  1
  H  H226  1  0.13453700  0.09697200  0.58568800  1
  H  H227  1  0.17241600  0.14285700  0.58059200  1
  H  H228  1  0.15327000  0.11442500  0.53494000  1
  H  H229  1  0.89501100  0.92288000  0.46970800  1
  H  H230  1  0.88123200  0.95186300  0.42298800  1
  H  H231  1  0.81614300  0.88517900  0.45968300  1
  H  H232  1  0.84752900  0.90279100  0.37027000  1
  H  H233  1  0.80358000  0.93443600  0.39319900  1
  H  H234  1  0.79769500  0.87547400  0.38720600  1
  H  H235  1  0.90239500  0.86542600  0.41422900  1
  H  H236  1  0.85647500  0.82755400  0.41908800  1
  H  H237  1  0.88496500  0.84630300  0.46485100  1
  H  H238  1  0.92300800  0.10445700  0.46994900  1
  H  H239  1  0.95220700  0.11781000  0.42325200  1
  H  H240  1  0.88534100  0.18318700  0.45925900  1
  H  H241  1  0.90372100  0.15145900  0.37008500  1
  H  H242  1  0.93503200  0.19559900  0.39311100  1
  H  H243  1  0.87611000  0.20128400  0.38662600  1
  H  H244  1  0.86592400  0.09676000  0.41397700  1
  H  H245  1  0.82799900  0.14267900  0.41848100  1
  H  H246  1  0.84647100  0.11435300  0.46444000  1
  H  H247  1  0.10417800  0.07703200  0.46916000  1
  H  H248  1  0.11809500  0.04838600  0.42229900  1
  H  H249  1  0.18287400  0.11517400  0.45935300  1
  H  H250  1  0.15156100  0.09791100  0.36985300  1
  H  H251  1  0.19575900  0.06648100  0.39263800  1
  H  H252  1  0.20119600  0.12551500  0.38690100  1
  H  H253  1  0.09652100  0.13484400  0.41403800  1
  H  H254  1  0.14225600  0.17290300  0.41914500  1
  H  H255  1  0.11386500  0.15367100  0.46478800  1
  H  H256  1  0.07707600  0.89521800  0.46896600  1
  H  H257  1  0.04866400  0.88096100  0.42205000  1
  H  H258  1  0.11513700  0.81634000  0.45976600  1
  H  H259  1  0.09877300  0.84745300  0.37006200  1
  H  H260  1  0.06691800  0.80346700  0.39266800  1
  H  H261  1  0.12598200  0.79774300  0.38746800  1
  H  H262  1  0.13530800  0.90254500  0.41438700  1
  H  H263  1  0.17324000  0.85675100  0.41983700  1
  H  H264  1  0.15373300  0.88528600  0.46529000  1
  H  H265  1  0.39551300  0.57670300  0.03032200  1
  H  H266  1  0.38215000  0.54742500  0.07697000  1
  H  H267  1  0.31677500  0.61436200  0.04107300  1
  H  H268  1  0.34856400  0.59587400  0.13020700  1
  H  H269  1  0.30440600  0.56459400  0.10717500  1
  H  H270  1  0.29873000  0.62350900  0.11372600  1
  H  H271  1  0.40323800  0.63371900  0.08631400  1
  H  H272  1  0.35731600  0.67165000  0.08188900  1
  H  H273  1  0.38559900  0.65323600  0.03588600  1
  H  H274  1  0.42317200  0.39546900  0.03071300  1
  H  H275  1  0.45192300  0.38162900  0.07754100  1
  H  H276  1  0.38537900  0.31658300  0.04052800  1
  H  H277  1  0.40251400  0.34801900  0.13001000  1
  H  H278  1  0.43414300  0.30395500  0.10724200  1
  H  H279  1  0.37513400  0.29825100  0.11298700  1
  H  H280  1  0.36533700  0.40286900  0.08582100  1
  H  H281  1  0.32747700  0.35696900  0.08072000  1
  H  H282  1  0.34658300  0.38543800  0.03507300  1
  H  H283  1  0.60480000  0.42296400  0.03064700  1
  H  H284  1  0.61909200  0.45130100  0.07759200  1
  H  H285  1  0.68371500  0.38494300  0.03970500  1
  H  H286  1  0.65269700  0.40112500  0.12946800  1
  H  H287  1  0.69663000  0.43305800  0.10686700  1
  H  H288  1  0.70241000  0.37398900  0.11196700  1
  H  H289  1  0.59757500  0.36463600  0.08514000  1
  H  H290  1  0.64339100  0.32674500  0.07959700  1
  H  H291  1  0.61479700  0.34630400  0.03419700  1
  H  H292  1  0.57692500  0.60512000  0.03015800  1
  H  H293  1  0.54799500  0.61873900  0.07694800  1
  H  H294  1  0.61443600  0.68406100  0.04022500  1
  H  H295  1  0.59704000  0.65253800  0.12963300  1
  H  H296  1  0.56524700  0.69642900  0.10678600  1
  H  H297  1  0.62420300  0.70246100  0.11270700  1
  H  H298  1  0.63448400  0.59781800  0.08558000  1
  H  H299  1  0.67223000  0.64384000  0.08070700  1
  H  H300  1  0.65348300  0.61534300  0.03494600  1
  H  H301  1  0.39546000  0.42317600  0.96938700  1
  H  H302  1  0.38162300  0.45192600  0.92255700  1
  H  H303  1  0.31658000  0.38537700  0.95956700  1
  H  H304  1  0.34801200  0.40252000  0.87008500  1
  H  H305  1  0.30394700  0.43414400  0.89285600  1
  H  H306  1  0.29824700  0.37513600  0.88710800  1
  H  H307  1  0.40286600  0.36534600  0.91427200  1
  H  H308  1  0.35697000  0.32748100  0.91937100  1
  H  H309  1  0.38543800  0.34658700  0.96501900  1
  H  H310  1  0.42294800  0.60481500  0.96944500  1
  H  H311  1  0.45128700  0.61910500  0.92250000  1
  H  H312  1  0.38492800  0.68372900  0.96038500  1
  H  H313  1  0.40111800  0.65271600  0.87062100  1
  H  H314  1  0.43304900  0.69664800  0.89322700  1
  H  H315  1  0.37398100  0.70242800  0.88812200  1
  H  H316  1  0.36462500  0.59759200  0.91494400  1
  H  H317  1  0.32673300  0.64340700  0.92048600  1
  H  H318  1  0.34628800  0.61481100  0.96588700  1
  H  H319  1  0.60510900  0.57693600  0.96992400  1
  H  H320  1  0.61872900  0.54800200  0.92313600  1
  H  H321  1  0.68405100  0.61444400  0.95985600  1
  H  H322  1  0.65253000  0.59704100  0.87044800  1
  H  H323  1  0.69641900  0.56524900  0.89329800  1
  H  H324  1  0.70245200  0.62420400  0.88737300  1
  H  H325  1  0.59781000  0.63449000  0.91449900  1
  H  H326  1  0.64383300  0.67223500  0.91937000  1
  H  H327  1  0.61533400  0.65349300  0.96513100  1
  H  H328  1  0.57669200  0.39553100  0.96976500  1
  H  H329  1  0.54741300  0.38216500  0.92311900  1
  H  H330  1  0.61435600  0.31679600  0.95901300  1
  H  H331  1  0.59586100  0.34858400  0.86987900  1
  H  H332  1  0.56458600  0.30442300  0.89291200  1
  H  H333  1  0.62350100  0.29875200  0.88635900  1
  H  H334  1  0.63370400  0.40326100  0.91377200  1
  H  H335  1  0.67163900  0.35734100  0.91819500  1
  H  H336  1  0.65322500  0.38562200  0.96419900  1
  C  C1  1  0.58602700  0.99937600  0.50020000  1
  C  C2  1  0.00123700  0.58602200  0.49981100  1
  C  C3  1  0.41350600  0.00134700  0.50006400  1
  C  C4  1  0.99945700  0.41350000  0.50009400  1
  C  C5  1  0.08646500  0.50062600  0.99993900  1
  C  C6  1  0.50063100  0.08647800  0.00015400  1
  C  C7  1  0.91394100  0.49904500  0.99996100  1
  C  C8  1  0.49904100  0.91395400  0.00013100  1
  C  C9  1  0.49963100  0.99955000  0.58116500  1
  C  C10  1  0.00115900  0.49984800  0.58098100  1
  C  C11  1  0.49992400  0.00117500  0.41911100  1
  C  C12  1  0.99953600  0.49969600  0.41892600  1
  C  C13  1  0.00030000  0.49889700  0.08097500  1
  C  C14  1  0.50081600  0.00014000  0.08116800  1
  C  C15  1  0.00012800  0.50077800  0.91892300  1
  C  C16  1  0.49886000  0.00031400  0.91911700  1
  C  C17  1  0.52719100  0.97235500  0.77164100  1
  C  C18  1  0.02830100  0.52821500  0.77134300  1
  C  C19  1  0.47147900  0.02818500  0.77140500  1
  C  C20  1  0.97247600  0.47249600  0.77132300  1
  C  C21  1  0.52834400  0.02827800  0.22874200  1
  C  C22  1  0.02813700  0.47153300  0.22869300  1
  C  C23  1  0.47255300  0.97252500  0.22877600  1
  C  C24  1  0.97237900  0.52731600  0.22844500  1
  C  C25  1  0.02800600  0.47161900  0.27145700  1
  C  C26  1  0.52825600  0.02839800  0.27150400  1
  C  C27  1  0.97229700  0.52745200  0.27120800  1
  C  C28  1  0.47241700  0.97269300  0.27154000  1
  C  C29  1  0.02842000  0.52811600  0.72858100  1
  C  C30  1  0.52731600  0.97227200  0.72887800  1
  C  C31  1  0.97264200  0.47235000  0.72855800  1
  C  C32  1  0.47155600  0.02805500  0.72864000  1
  C  C33  1  0.49927600  0.00031300  0.79287000  1
  C  C34  1  0.00032100  0.50041500  0.79267900  1
  C  C35  1  0.50050300  0.00033400  0.20741300  1
  C  C36  1  0.00030100  0.49936000  0.20722200  1
  C  C37  1  0.00008900  0.49958200  0.29267900  1
  C  C38  1  0.50027800  0.00062100  0.29286800  1
  C  C39  1  0.00060600  0.50016900  0.70722400  1
  C  C40  1  0.49947800  0.00010100  0.70741200  1
  C  C41  1  0.49911900  0.00035700  0.83732600  1
  C  C42  1  0.00020800  0.50052800  0.83713400  1
  C  C43  1  0.50060100  0.00022100  0.16295800  1
  C  C44  1  0.00034300  0.49919000  0.16276600  1
  C  C45  1  0.99991500  0.49964000  0.33713600  1
  C  C46  1  0.50014700  0.00079800  0.33732300  1
  C  C47  1  0.00078000  0.50003400  0.66276900  1
  C  C48  1  0.49953400  0.99993000  0.66295600  1
  C  C49  1  0.49957500  0.99976300  0.62560800  1
  C  C50  1  0.00094600  0.49993700  0.62542200  1
  C  C51  1  0.50004300  0.00096400  0.37467000  1
  C  C52  1  0.99974800  0.49967200  0.37448400  1
  C  C53  1  0.00034000  0.49904900  0.12541800  1
  C  C54  1  0.50069300  0.00016300  0.12561000  1
  C  C55  1  0.00014900  0.50063600  0.87448100  1
  C  C56  1  0.49899300  0.00035400  0.87467400  1
  C  C57  1  0.70234500  0.99710100  0.46322100  1
  C  C58  1  0.00335200  0.70225700  0.46259100  1
  C  C59  1  0.29726800  0.00361200  0.46278300  1
  C  C60  1  0.99717600  0.29713100  0.46318100  1
  C  C61  1  0.70231200  0.00217600  0.53724200  1
  C  C62  1  0.00242700  0.29720500  0.53718400  1
  C  C63  1  0.29708100  0.99834000  0.53678300  1
  C  C64  1  0.99825700  0.70238800  0.53661000  1
  C  C65  1  0.20275400  0.49763300  0.96292400  1
  C  C66  1  0.50260100  0.20279000  0.96314200  1
  C  C67  1  0.79757000  0.50220300  0.96309600  1
  C  C68  1  0.49681300  0.79766300  0.96300300  1
  C  C69  1  0.20277700  0.50260200  0.03695100  1
  C  C70  1  0.50220100  0.79758300  0.03699700  1
  C  C71  1  0.79765000  0.49683100  0.03709000  1
  C  C72  1  0.49764700  0.20276600  0.03717100  1
  C  C73  1  0.65658900  0.99602400  0.46282100  1
  C  C74  1  0.00450500  0.65650100  0.46228800  1
  C  C75  1  0.34302700  0.00473700  0.46250200  1
  C  C76  1  0.99610400  0.34288900  0.46275200  1
  C  C77  1  0.65655100  0.00309200  0.53761400  1
  C  C78  1  0.00331300  0.34296900  0.53754400  1
  C  C79  1  0.34284300  0.99750900  0.53729200  1
  C  C80  1  0.99741800  0.65662800  0.53707900  1
  C  C81  1  0.15699300  0.49680600  0.96253800  1
  C  C82  1  0.50375800  0.15703500  0.96275200  1
  C  C83  1  0.84333400  0.50303800  0.96265000  1
  C  C84  1  0.49568300  0.84342000  0.96266200  1
  C  C85  1  0.15702200  0.50376000  0.03734100  1
  C  C86  1  0.50303900  0.84334700  0.03744200  1
  C  C87  1  0.84340700  0.49570000  0.03743100  1
  C  C88  1  0.49682200  0.15700500  0.03755600  1
  C  C89  1  0.63417700  0.99950300  0.50021200  1
  C  C90  1  0.00105300  0.63417200  0.49972500  1
  C  C91  1  0.36534200  0.00120800  0.49995400  1
  C  C92  1  0.99963500  0.36533600  0.50013300  1
  C  C93  1  0.13461400  0.50039000  0.99993900  1
  C  C94  1  0.50039700  0.13462700  0.00015400  1
  C  C95  1  0.86577700  0.49927500  0.00001300  1
  C  C96  1  0.49926900  0.86579000  0.00007900  1
  C  C97  1  0.72499000  0.99966700  0.50023900  1
  C  C98  1  0.00072300  0.72498400  0.49956100  1
  C  C99  1  0.27451400  0.00089500  0.49972700  1
  C  C100  1  0.99982900  0.27450700  0.50020100  1
  C  C101  1  0.22542600  0.50005100  0.99993400  1
  C  C102  1  0.50005700  0.22543900  0.00016000  1
  C  C103  1  0.77494900  0.49957800  0.00011900  1
  C  C104  1  0.49956700  0.77496200  0.99997400  1
  C  C105  1  0.79596500  0.02971300  0.52422100  1
  C  C106  1  0.97053500  0.79594500  0.52342700  1
  C  C107  1  0.20354700  0.97062600  0.52352400  1
  C  C108  1  0.02986200  0.20351800  0.52421800  1
  C  C109  1  0.79605700  0.96981000  0.47627900  1
  C  C110  1  0.96989600  0.20344200  0.47628800  1
  C  C111  1  0.20342800  0.03060900  0.47561300  1
  C  C112  1  0.03045500  0.79606300  0.47550500  1
  C  C113  1  0.29650800  0.52984700  0.02394000  1
  C  C114  1  0.47000700  0.29640000  0.02422300  1
  C  C115  1  0.70391200  0.46968000  0.02409000  1
  C  C116  1  0.52971300  0.70395000  0.02378600  1
  C  C117  1  0.29638900  0.47000400  0.97587400  1
  C  C118  1  0.46966500  0.70392600  0.97600400  1
  C  C119  1  0.70393800  0.52972200  0.97630300  1
  C  C120  1  0.52984400  0.29652300  0.97615100  1
  C  C121  1  0.84172200  0.03064200  0.52434300  1
  C  C122  1  0.96951200  0.84170400  0.52347600  1
  C  C123  1  0.15779200  0.96962500  0.52354500  1
  C  C124  1  0.03069400  0.15776000  0.52438000  1
  C  C125  1  0.84182000  0.96897100  0.47620500  1
  C  C126  1  0.96908700  0.15768200  0.47622000  1
  C  C127  1  0.15766600  0.03124900  0.47540500  1
  C  C128  1  0.03120000  0.84182400  0.47535700  1
  C  C129  1  0.34226800  0.53065200  0.02397800  1
  C  C130  1  0.46914500  0.34215700  0.02439200  1
  C  C131  1  0.65815400  0.46889300  0.02427300  1
  C  C132  1  0.53067100  0.65818800  0.02381900  1
  C  C133  1  0.34214600  0.46914700  0.97570400  1
  C  C134  1  0.46887900  0.65816700  0.97581900  1
  C  C135  1  0.65817600  0.53068200  0.97626900  1
  C  C136  1  0.53064600  0.34228300  0.97611200  1
  C  C137  1  0.86470700  0.99977300  0.50035600  1
  C  C138  1  0.00023600  0.86470000  0.49932900  1
  C  C139  1  0.13487200  0.00030200  0.49937100  1
  C  C140  1  0.99984600  0.13486400  0.50038600  1
  C  C141  1  0.36506500  0.49994600  0.99973200  1
  C  C142  1  0.49993900  0.36507800  0.00036000  1
  C  C143  1  0.63523000  0.49988700  0.00037600  1
  C  C144  1  0.49987400  0.63524300  0.99971300  1
  C  C145  1  0.77337700  0.99972300  0.50025600  1
  C  C146  1  0.00055300  0.77337000  0.49948000  1
  C  C147  1  0.22612700  0.00069800  0.49960700  1
  C  C148  1  0.99986000  0.22611900  0.50024300  1
  C  C149  1  0.27381100  0.49996200  0.99991600  1
  C  C150  1  0.49996500  0.27382400  0.00017800  1
  C  C151  1  0.72656100  0.49967500  0.00018100  1
  C  C152  1  0.49966300  0.72657400  0.99991100  1
  C  C153  1  0.00001800  0.91329700  0.49916200  1
  C  C154  1  0.08635200  0.00005900  0.49918700  1
  C  C155  1  0.99977900  0.08634300  0.50055400  1
  C  C156  1  0.91330500  0.99972100  0.50053200  1
  C  C157  1  0.50002700  0.41359900  0.00060100  1
  C  C158  1  0.58663400  0.50007100  0.00060400  1
  C  C159  1  0.50005700  0.58664700  0.99948500  1
  C  C160  1  0.41358600  0.50003700  0.99949100  1
  C  C161  1  0.62950200  0.99250700  0.42352500  1
  C  C162  1  0.65506700  0.98611900  0.38309400  1
  C  C163  1  0.67262200  0.93912100  0.37970500  1
  C  C164  1  0.62391900  0.99418900  0.34697700  1
  C  C165  1  0.00806600  0.62932200  0.42305100  1
  C  C166  1  0.01441500  0.65479400  0.38256500  1
  C  C167  1  0.06138800  0.67240600  0.37913700  1
  C  C168  1  0.00638700  0.62354300  0.34651700  1
  C  C169  1  0.37020600  0.00819200  0.42325000  1
  C  C170  1  0.34471600  0.01399000  0.38270000  1
  C  C171  1  0.32700500  0.06088100  0.37877700  1
  C  C172  1  0.37597700  0.00560300  0.34673400  1
  C  C173  1  0.99267100  0.36992700  0.42341200  1
  C  C174  1  0.98689700  0.34429200  0.38294000  1
  C  C175  1  0.93999900  0.32659400  0.37903500  1
  C  C176  1  0.99533600  0.37541500  0.34688000  1
  C  C177  1  0.62942500  0.00652700  0.57689400  1
  C  C178  1  0.65493500  0.01313600  0.61732500  1
  C  C179  1  0.67228900  0.06021700  0.62061000  1
  C  C180  1  0.62379500  0.00503600  0.65344300  1
  C  C181  1  0.00665500  0.37008500  0.57684200  1
  C  C182  1  0.01276300  0.34454200  0.61732500  1
  C  C183  1  0.05977300  0.32709600  0.62105500  1
  C  C184  1  0.00433700  0.37567300  0.65338200  1
  C  C185  1  0.36981900  0.99417100  0.57667700  1
  C  C186  1  0.34413100  0.98807500  0.61708000  1
  C  C187  1  0.32669900  0.94105800  0.62078200  1
  C  C188  1  0.37512300  0.99654500  0.65323200  1
  C  C189  1  0.99401000  0.62959300  0.57641700  1
  C  C190  1  0.98735100  0.65519500  0.61679000  1
  C  C191  1  0.94024500  0.67249200  0.62002600  1
  C  C192  1  0.99548300  0.62415900  0.65298000  1
  C  C193  1  0.12987500  0.49348400  0.92324500  1
  C  C194  1  0.15538900  0.48686900  0.88281600  1
  C  C195  1  0.17265000  0.43975700  0.87948900  1
  C  C196  1  0.12428400  0.49507300  0.84669400  1
  C  C197  1  0.50724900  0.12993800  0.92345900  1
  C  C198  1  0.51347000  0.15549900  0.88300300  1
  C  C199  1  0.56042300  0.17314300  0.87949000  1
  C  C200  1  0.50535600  0.12431800  0.84691900  1
  C  C201  1  0.87037000  0.50641500  0.92330500  1
  C  C202  1  0.84474900  0.51260800  0.88287800  1
  C  C203  1  0.82734000  0.55963900  0.87924000  1
  C  C204  1  0.87579700  0.50420400  0.84675400  1
  C  C205  1  0.49213400  0.87053600  0.92337900  1
  C  C206  1  0.48626800  0.84497800  0.88287500  1
  C  C207  1  0.43937600  0.82724400  0.87905600  1
  C  C208  1  0.49457600  0.87618300  0.84685100  1
  C  C209  1  0.12992400  0.50726100  0.07663300  1
  C  C210  1  0.15548300  0.51349400  0.11708700  1
  C  C211  1  0.17312800  0.56044800  0.12058800  1
  C  C212  1  0.12430200  0.50539200  0.15317300  1
  C  C213  1  0.50642800  0.87038400  0.07678500  1
  C  C214  1  0.51263200  0.84476300  0.11721100  1
  C  C215  1  0.55966400  0.82735100  0.12083500  1
  C  C216  1  0.50424300  0.87581300  0.15333800  1
  C  C217  1  0.87052400  0.49216000  0.07671500  1
  C  C218  1  0.84496700  0.48631100  0.11722100  1
  C  C219  1  0.82722900  0.43942000  0.12105500  1
  C  C220  1  0.87617300  0.49462900  0.15324200  1
  C  C221  1  0.49351000  0.12988600  0.07685000  1
  C  C222  1  0.48691000  0.15539900  0.11728100  1
  C  C223  1  0.43980000  0.17266100  0.12062400  1
  C  C224  1  0.49512600  0.12429300  0.15340000  1
  C  C225  1  0.86709800  0.06438300  0.54959100  1
  C  C226  1  0.84144400  0.10535600  0.56301300  1
  C  C227  1  0.82092600  0.09821600  0.60559500  1
  C  C228  1  0.87322600  0.14400400  0.56583000  1
  C  C229  1  0.93587600  0.86707300  0.54885600  1
  C  C230  1  0.89518500  0.84131800  0.56285500  1
  C  C231  1  0.90299900  0.82093300  0.60538900  1
  C  C232  1  0.85648300  0.87298900  0.56608600  1
  C  C233  1  0.13222200  0.93609300  0.54884800  1
  C  C234  1  0.15790700  0.89550900  0.56321300  1
  C  C235  1  0.17811100  0.90363900  0.60576800  1
  C  C236  1  0.12621500  0.85683400  0.56655200  1
  C  C237  1  0.06427600  0.13216400  0.54959600  1
  C  C238  1  0.10517300  0.15770800  0.56338500  1
  C  C239  1  0.09771100  0.17811200  0.60596300  1
  C  C240  1  0.14374800  0.12585500  0.56637000  1
  C  C241  1  0.86731100  0.93544100  0.45080900  1
  C  C242  1  0.84170300  0.89467100  0.43677600  1
  C  C243  1  0.82127700  0.90245600  0.39425400  1
  C  C244  1  0.87351700  0.85609000  0.43350100  1
  C  C245  1  0.93566500  0.13200000  0.45088900  1
  C  C246  1  0.89499800  0.15753900  0.43650300  1
  C  C247  1  0.90309600  0.17780800  0.39397000  1
  C  C248  1  0.85645000  0.12570000  0.43310600  1
  C  C249  1  0.13195600  0.06473900  0.45018200  1
  C  C250  1  0.15735400  0.10572700  0.43639200  1
  C  C251  1  0.17781900  0.09832100  0.39383100  1
  C  C252  1  0.12535400  0.14417600  0.43337000  1
  C  C253  1  0.06485300  0.86732200  0.45011500  1
  C  C254  1  0.10591400  0.84181600  0.43667900  1
  C  C255  1  0.09882700  0.82126100  0.39410600  1
  C  C256  1  0.14444300  0.87374000  0.43384000  1
  C  C257  1  0.36796400  0.56402200  0.04935900  1
  C  C258  1  0.34243900  0.60467500  0.06380300  1
  C  C259  1  0.32219800  0.59653000  0.10633900  1
  C  C260  1  0.37428200  0.64321700  0.06721800  1
  C  C261  1  0.43559200  0.36772600  0.04966500  1
  C  C262  1  0.39471700  0.34215900  0.06347500  1
  C  C263  1  0.40222100  0.32174800  0.10604400  1
  C  C264  1  0.35612900  0.37399300  0.06649200  1
  C  C265  1  0.63270900  0.43517400  0.04948600  1
  C  C266  1  0.65826100  0.39410800  0.06283300  1
  C  C267  1  0.67886100  0.40113600  0.10539600  1
  C  C268  1  0.62636700  0.35555300  0.06564900  1
  C  C269  1  0.56432400  0.63275300  0.04911900  1
  C  C270  1  0.60504700  0.65845400  0.06312200  1
  C  C271  1  0.59727100  0.67881600  0.10567300  1
  C  C272  1  0.64371500  0.62673800  0.06631900  1
  C  C273  1  0.36771900  0.43559400  0.95043300  1
  C  C274  1  0.34215400  0.39471800  0.93662000  1
  C  C275  1  0.32174300  0.40222400  0.89405200  1
  C  C276  1  0.37399200  0.35613400  0.93360000  1
  C  C277  1  0.43515900  0.63272300  0.95060500  1
  C  C278  1  0.39409500  0.65827600  0.93725600  1
  C  C279  1  0.40112700  0.67887800  0.89469400  1
  C  C280  1  0.35554000  0.62638300  0.93443600  1
  C  C281  1  0.63274200  0.56433300  0.95096400  1
  C  C282  1  0.65844500  0.60505300  0.93695900  1
  C  C283  1  0.67880700  0.59727400  0.89440900  1
  C  C284  1  0.62672900  0.64372200  0.93375900  1
  C  C285  1  0.56401100  0.36798100  0.95072900  1
  C  C286  1  0.60466600  0.34245900  0.93628300  1
  C  C287  1  0.59652000  0.32221800  0.89374700  1
  C  C288  1  0.64320600  0.37430500  0.93286700  1
  O  O1  1  0.56548500  0.03749500  0.49915200  1
  O  O2  1  0.96314100  0.56543700  0.49881000  1
  O  O3  1  0.43406000  0.96323100  0.50099200  1
  O  O4  1  0.03755300  0.43409500  0.50097000  1
  O  O5  1  0.56569700  0.96117000  0.50126500  1
  O  O6  1  0.96123000  0.43379800  0.49911200  1
  O  O7  1  0.43384700  0.03955400  0.49913400  1
  O  O8  1  0.03946600  0.56573500  0.50092200  1
  O  O9  1  0.06621900  0.53887900  0.99891600  1
  O  O10  1  0.46255500  0.06585400  0.99918200  1
  O  O11  1  0.93419800  0.46079400  0.00085400  1
  O  O12  1  0.53711700  0.93458800  0.00097700  1
  O  O13  1  0.06584000  0.46255200  0.00092500  1
  O  O14  1  0.46079000  0.93421300  0.99925300  1
  O  O15  1  0.93457600  0.53711900  0.99910000  1
  O  O16  1  0.53888400  0.06623000  0.00116000  1
  O  O17  1  0.49872400  0.03762500  0.56177700  1
  O  O18  1  0.96308500  0.49885000  0.56159500  1
  O  O19  1  0.50064200  0.96131000  0.56211100  1
  O  O20  1  0.03939800  0.50084800  0.56192400  1
  O  O21  1  0.50087300  0.96309900  0.43849900  1
  O  O22  1  0.96129900  0.49864300  0.43798300  1
  O  O23  1  0.49886000  0.03941300  0.43816500  1
  O  O24  1  0.03760900  0.50073500  0.43831300  1
  O  O25  1  0.00134200  0.53699800  0.06163800  1
  O  O26  1  0.46270300  0.99914200  0.06184800  1
  O  O27  1  0.99916700  0.46069000  0.06186800  1
  O  O28  1  0.53901400  0.00121900  0.06204700  1
  O  O29  1  0.99912700  0.46267400  0.93825800  1
  O  O30  1  0.46066200  0.99918200  0.93823900  1
  O  O31  1  0.00120800  0.53898500  0.93803000  1
  O  O32  1  0.53697000  0.00135400  0.93843900  1
  O  O33  1  0.99989200  0.93416800  0.53483800  1
  O  O34  1  0.06552300  0.00168300  0.53485100  1
  O  O35  1  0.99805200  0.06579400  0.53634800  1
  O  O36  1  0.93389800  0.99982400  0.53634000  1
  O  O37  1  0.00148400  0.06553100  0.46488400  1
  O  O38  1  0.06581900  0.99827500  0.46338600  1
  O  O39  1  0.00006300  0.93390100  0.46335900  1
  O  O40  1  0.93418700  0.99967500  0.46486100  1
  O  O41  1  0.50182700  0.43408700  0.03642400  1
  O  O42  1  0.56609000  0.49995400  0.03643600  1
  O  O43  1  0.50020100  0.56571900  0.03513300  1
  O  O44  1  0.43446100  0.49831600  0.03512700  1
  O  O45  1  0.49993900  0.56610200  0.96365400  1
  O  O46  1  0.56570600  0.50021400  0.96495700  1
  O  O47  1  0.49830400  0.43447300  0.96496400  1
  O  O48  1  0.43407400  0.50183800  0.96366700  1
