# generated using pymatgen
data_Cu3H42C73O17
_symmetry_space_group_name_H-M   'P 1'
_cell_length_a   36.33557200
_cell_length_b   30.13729400
_cell_length_c   21.26998300
_cell_angle_alpha   90.00000000
_cell_angle_beta   55.68219200
_cell_angle_gamma   90.00000000
_symmetry_Int_Tables_number   1
_chemical_formula_structural   Cu3H42C73O17
_chemical_formula_sum   'Cu12 H168 C292 O68'
_cell_volume   19237.25115637
_cell_formula_units_Z   4
loop_
 _symmetry_equiv_pos_site_id
 _symmetry_equiv_pos_as_xyz
  1  'x, y, z'
loop_
 _atom_site_type_symbol
 _atom_site_label
 _atom_site_symmetry_multiplicity
 _atom_site_fract_x
 _atom_site_fract_y
 _atom_site_fract_z
 _atom_site_occupancy
  Cu  Cu1  1  0.00000100  0.44116700  0.99999800  1
  Cu  Cu2  1  0.50256000  0.48018000  0.43625500  1
  Cu  Cu3  1  0.99744300  0.98017900  0.56373900  1
  Cu  Cu4  1  0.00256000  0.98018000  0.43625500  1
  Cu  Cu5  1  0.50000100  0.94116700  0.99999800  1
  Cu  Cu6  1  0.00000200  0.52770200  0.99999800  1
  Cu  Cu7  1  0.50000200  0.02770200  0.99999800  1
  Cu  Cu8  1  0.04438800  0.47955500  0.45933400  1
  Cu  Cu9  1  0.95561500  0.47955500  0.54066300  1
  Cu  Cu10  1  0.54438800  0.97955500  0.45933400  1
  Cu  Cu11  1  0.45561500  0.97955500  0.54066300  1
  Cu  Cu12  1  0.49744300  0.48017900  0.56373900  1
  H  H1  1  0.97404400  0.55004900  0.31488400  1
  H  H2  1  0.96309000  0.41269700  0.82741100  1
  H  H3  1  0.11634500  0.13096600  0.67527700  1
  H  H4  1  0.04983600  0.16630200  0.78464900  1
  H  H5  1  0.98294400  0.17698200  0.78409300  1
  H  H6  1  0.98202900  0.15232100  0.67569400  1
  H  H7  1  0.88350600  0.10743700  0.43484200  1
  H  H8  1  0.88365500  0.13097000  0.32472500  1
  H  H9  1  0.95016300  0.16630600  0.21535300  1
  H  H10  1  0.01705600  0.17698500  0.21590900  1
  H  H11  1  0.01797200  0.15232200  0.32430600  1
  H  H12  1  0.66090600  0.36134400  0.42552200  1
  H  H13  1  0.53691200  0.91269600  0.17258600  1
  H  H14  1  0.72305400  0.37745300  0.29564300  1
  H  H15  1  0.71125800  0.38307600  0.19304800  1
  H  H16  1  0.63646700  0.37142100  0.22100300  1
  H  H17  1  0.57399400  0.35424500  0.34956100  1
  H  H18  1  0.33910100  0.36134200  0.57446100  1
  H  H19  1  0.27695000  0.37745000  0.70434100  1
  H  H20  1  0.28874300  0.38307100  0.80693900  1
  H  H21  1  0.36353300  0.37141700  0.77898800  1
  H  H22  1  0.42600900  0.35424400  0.65043100  1
  H  H23  1  0.16090600  0.86134400  0.42552200  1
  H  H24  1  0.46309000  0.91269700  0.82741100  1
  H  H25  1  0.22305400  0.87745300  0.29564300  1
  H  H26  1  0.21125800  0.88307600  0.19304800  1
  H  H27  1  0.13646700  0.87142100  0.22100300  1
  H  H28  1  0.07399400  0.85424500  0.34956100  1
  H  H29  1  0.83910100  0.86134200  0.57446100  1
  H  H30  1  0.77695000  0.87745000  0.70434100  1
  H  H31  1  0.78874300  0.88307100  0.80693900  1
  H  H32  1  0.86353300  0.87141700  0.77898800  1
  H  H33  1  0.92600900  0.85424400  0.65043100  1
  H  H34  1  0.90975600  0.33164600  0.37612700  1
  H  H35  1  0.08059800  0.47260500  0.21287300  1
  H  H36  1  0.94004900  0.25954800  0.37660600  1
  H  H37  1  0.01788300  0.25281400  0.33603000  1
  H  H38  1  0.06497100  0.31929400  0.29803400  1
  H  H39  1  0.03549900  0.39163500  0.29856900  1
  H  H40  1  0.09024500  0.33164500  0.62387300  1
  H  H41  1  0.05995200  0.25954700  0.62339500  1
  H  H42  1  0.98211700  0.25281400  0.66397200  1
  H  H43  1  0.93502900  0.31929500  0.70196800  1
  H  H44  1  0.96450200  0.39163600  0.70143000  1
  H  H45  1  0.40975600  0.83164600  0.37612700  1
  H  H46  1  0.91940500  0.47260800  0.78712400  1
  H  H47  1  0.44004900  0.75954800  0.37660600  1
  H  H48  1  0.51788300  0.75281400  0.33603000  1
  H  H49  1  0.56497100  0.81929400  0.29803400  1
  H  H50  1  0.53549900  0.89163500  0.29856900  1
  H  H51  1  0.59024500  0.83164500  0.62387300  1
  H  H52  1  0.55995200  0.75954700  0.62339500  1
  H  H53  1  0.48211700  0.75281400  0.66397200  1
  H  H54  1  0.43502900  0.81929500  0.70196800  1
  H  H55  1  0.46450200  0.89163600  0.70143000  1
  H  H56  1  0.11906200  0.61790100  0.09603800  1
  H  H57  1  0.58059800  0.97260500  0.21287300  1
  H  H58  1  0.19803800  0.61119100  0.99505400  1
  H  H59  1  0.22958900  0.53909500  0.93424600  1
  H  H60  1  0.18095200  0.47379800  0.97262200  1
  H  H61  1  0.10182000  0.47988600  0.07069800  1
  H  H62  1  0.88094400  0.61790300  0.90395700  1
  H  H63  1  0.80196800  0.61119500  0.00494100  1
  H  H64  1  0.77041500  0.53909900  0.06574900  1
  H  H65  1  0.81905100  0.47380200  0.02737600  1
  H  H66  1  0.89818300  0.47988800  0.92930000  1
  H  H67  1  0.61906200  0.11790100  0.09603800  1
  H  H68  1  0.41940500  0.97260800  0.78712400  1
  H  H69  1  0.69803800  0.11119100  0.99505400  1
  H  H70  1  0.72958900  0.03909500  0.93424600  1
  H  H71  1  0.68095200  0.97379800  0.97262200  1
  H  H72  1  0.60182100  0.97988600  0.07069800  1
  H  H73  1  0.38094400  0.11790300  0.90395700  1
  H  H74  1  0.30196800  0.11119500  0.00494100  1
  H  H75  1  0.27041500  0.03909900  0.06574900  1
  H  H76  1  0.31905100  0.97380200  0.02737600  1
  H  H77  1  0.39818300  0.97988800  0.92930000  1
  H  H78  1  0.77828300  0.54708000  0.18834800  1
  H  H79  1  0.22172100  0.54707800  0.81164800  1
  H  H80  1  0.27828300  0.04708000  0.18834800  1
  H  H81  1  0.02596000  0.55005000  0.68511200  1
  H  H82  1  0.72172100  0.04707800  0.81164800  1
  H  H83  1  0.85905400  0.54746500  0.10367800  1
  H  H84  1  0.14095000  0.54746300  0.89631900  1
  H  H85  1  0.35905400  0.04746500  0.10367800  1
  H  H86  1  0.64095000  0.04746300  0.89631900  1
  H  H87  1  0.86350400  0.42339400  0.19712600  1
  H  H88  1  0.13649900  0.42339300  0.80287000  1
  H  H89  1  0.36350400  0.92339400  0.19712600  1
  H  H90  1  0.63649900  0.92339300  0.80287000  1
  H  H91  1  0.78272200  0.42405700  0.28308300  1
  H  H92  1  0.47404400  0.05004900  0.31488400  1
  H  H93  1  0.21728100  0.42405600  0.71691200  1
  H  H94  1  0.28272200  0.92405700  0.28308300  1
  H  H95  1  0.71728100  0.92405600  0.71691200  1
  H  H96  1  0.72303000  0.47086200  0.39081800  1
  H  H97  1  0.27697400  0.47086200  0.60917600  1
  H  H98  1  0.22303000  0.97086200  0.39081800  1
  H  H99  1  0.77697400  0.97086200  0.60917600  1
  H  H100  1  0.63835700  0.49311700  0.27756900  1
  H  H101  1  0.36164700  0.49311400  0.72242700  1
  H  H102  1  0.13835700  0.99311700  0.27756900  1
  H  H103  1  0.52596000  0.05005000  0.68511200  1
  H  H104  1  0.86164700  0.99311400  0.72242600  1
  H  H105  1  0.71898000  0.49675200  0.19826200  1
  H  H106  1  0.28102300  0.49674800  0.80173300  1
  H  H107  1  0.21898000  0.99675200  0.19826200  1
  H  H108  1  0.78102300  0.99674800  0.80173300  1
  H  H109  1  0.92980600  0.33995600  0.54965000  1
  H  H110  1  0.07019600  0.33995600  0.45034900  1
  H  H111  1  0.42980600  0.83995600  0.54965000  1
  H  H112  1  0.57019600  0.83995600  0.45034900  1
  H  H113  1  0.54180300  0.70026800  0.54029900  1
  H  H114  1  0.93029700  0.49009400  0.27504600  1
  H  H115  1  0.45819800  0.70026800  0.45970200  1
  H  H116  1  0.04180300  0.20026800  0.54029900  1
  H  H117  1  0.95819800  0.20026800  0.45970200  1
  H  H118  1  0.92978100  0.69942200  0.58538100  1
  H  H119  1  0.07022300  0.69942100  0.41461200  1
  H  H120  1  0.42978100  0.19942200  0.58538100  1
  H  H121  1  0.57022300  0.19942100  0.41461200  1
  H  H122  1  0.92965800  0.61927700  0.58373800  1
  H  H123  1  0.07034600  0.61927600  0.41625800  1
  H  H124  1  0.42965800  0.11927700  0.58373800  1
  H  H125  1  0.06970600  0.49009300  0.72495000  1
  H  H126  1  0.57034600  0.11927600  0.41625800  1
  H  H127  1  0.92984100  0.25960100  0.55051000  1
  H  H128  1  0.07016100  0.25960100  0.44949000  1
  H  H129  1  0.42984100  0.75960100  0.55051000  1
  H  H130  1  0.57016100  0.75960100  0.44949000  1
  H  H131  1  0.56326800  0.26064200  0.48502400  1
  H  H132  1  0.43673700  0.26064200  0.51496700  1
  H  H133  1  0.06326800  0.76064200  0.48502300  1
  H  H134  1  0.93673700  0.76064200  0.51496700  1
  H  H135  1  0.62379600  0.43728400  0.62532400  1
  H  H136  1  0.43029700  0.99009400  0.27504600  1
  H  H137  1  0.64447100  0.47475500  0.70279300  1
  H  H138  1  0.68232900  0.54703800  0.66324100  1
  H  H139  1  0.69881400  0.58219600  0.54577800  1
  H  H140  1  0.67747700  0.54609000  0.46846700  1
  H  H141  1  0.37620700  0.43728700  0.37467000  1
  H  H142  1  0.35553100  0.47475800  0.29720300  1
  H  H143  1  0.31767200  0.54704200  0.33675900  1
  H  H144  1  0.30118700  0.58219800  0.45422300  1
  H  H145  1  0.32252600  0.54609000  0.53153100  1
  H  H146  1  0.12379600  0.93728400  0.62532400  1
  H  H147  1  0.56970600  0.99009300  0.72495000  1
  H  H148  1  0.14447100  0.97475500  0.70279300  1
  H  H149  1  0.18232900  0.04703800  0.66324100  1
  H  H150  1  0.19881400  0.08219600  0.54577800  1
  H  H151  1  0.17747700  0.04609000  0.46846700  1
  H  H152  1  0.87620700  0.93728700  0.37467000  1
  H  H153  1  0.85553100  0.97475800  0.29720300  1
  H  H154  1  0.81767200  0.04704200  0.33675900  1
  H  H155  1  0.80118700  0.08219800  0.45422300  1
  H  H156  1  0.82252600  0.04609000  0.53153100  1
  H  H157  1  0.61649400  0.60743500  0.56515900  1
  H  H158  1  0.03691200  0.41269600  0.17258600  1
  H  H159  1  0.61634500  0.63096600  0.67527700  1
  H  H160  1  0.54983600  0.66630200  0.78464900  1
  H  H161  1  0.48294400  0.67698200  0.78409300  1
  H  H162  1  0.48202900  0.65232100  0.67569400  1
  H  H163  1  0.38350600  0.60743700  0.43484200  1
  H  H164  1  0.38365500  0.63097000  0.32472500  1
  H  H165  1  0.45016300  0.66630600  0.21535300  1
  H  H166  1  0.51705600  0.67698500  0.21590900  1
  H  H167  1  0.51797200  0.65232200  0.32430600  1
  H  H168  1  0.11649400  0.10743500  0.56515900  1
  C  C1  1  0.91583600  0.48460700  0.09042300  1
  C  C2  1  0.03913900  0.32273100  0.47231000  1
  C  C3  1  0.77380700  0.98462800  0.71023200  1
  C  C4  1  0.00000100  0.34581100  0.50000000  1
  C  C5  1  0.50000100  0.84581100  0.50000000  1
  C  C6  1  0.00000100  0.25395300  0.50000000  1
  C  C7  1  0.50000100  0.75395300  0.50000000  1
  C  C8  1  0.50000200  0.25447300  0.49999500  1
  C  C9  1  0.00000200  0.75447300  0.49999500  1
  C  C10  1  0.00000200  0.56485500  0.49999800  1
  C  C11  1  0.50000200  0.06485500  0.49999800  1
  C  C12  1  0.00257900  0.47958200  0.37705000  1
  C  C13  1  0.46086300  0.82273100  0.52769000  1
  C  C14  1  0.99742400  0.47958300  0.62294700  1
  C  C15  1  0.50257900  0.97958200  0.37705000  1
  C  C16  1  0.49742400  0.97958300  0.62294700  1
  C  C17  1  0.00000100  0.39435000  0.49999900  1
  C  C18  1  0.50000100  0.89435000  0.49999900  1
  C  C19  1  0.50000100  0.61317800  0.49999900  1
  C  C20  1  0.00000100  0.11317800  0.49999900  1
  C  C21  1  0.50000100  0.56440900  0.49999900  1
  C  C22  1  0.00000100  0.06440900  0.49999900  1
  C  C23  1  0.58453800  0.47967700  0.42600000  1
  C  C24  1  0.53913900  0.82273100  0.47231000  1
  C  C25  1  0.41546500  0.47967600  0.57399500  1
  C  C26  1  0.08453800  0.97967700  0.42600000  1
  C  C27  1  0.91546500  0.97967600  0.57399500  1
  C  C28  1  0.52283700  0.63652800  0.52429500  1
  C  C29  1  0.47716500  0.63652800  0.47570400  1
  C  C30  1  0.02283700  0.13652800  0.52429500  1
  C  C31  1  0.97716500  0.13652800  0.47570400  1
  C  C32  1  0.50000200  0.39587000  0.49999500  1
  C  C33  1  0.00000200  0.89587000  0.49999500  1
  C  C34  1  0.96078300  0.68231300  0.54671200  1
  C  C35  1  0.52322000  0.68234400  0.52289300  1
  C  C36  1  0.03922200  0.68231300  0.45328100  1
  C  C37  1  0.46078300  0.18231300  0.54671200  1
  C  C38  1  0.53922200  0.18231300  0.45328100  1
  C  C39  1  0.96073800  0.63658200  0.54630900  1
  C  C40  1  0.03926600  0.63658200  0.45368600  1
  C  C41  1  0.46073800  0.13658200  0.54630900  1
  C  C42  1  0.53926600  0.13658200  0.45368600  1
  C  C43  1  0.00000200  0.61346100  0.49999800  1
  C  C44  1  0.50000200  0.11346100  0.49999800  1
  C  C45  1  0.00000200  0.70561700  0.49999600  1
  C  C46  1  0.47678200  0.68234400  0.47710700  1
  C  C47  1  0.50000200  0.20561700  0.49999600  1
  C  C48  1  0.53533900  0.27778400  0.49105700  1
  C  C49  1  0.46466600  0.27778400  0.50893300  1
  C  C50  1  0.03533900  0.77778400  0.49105700  1
  C  C51  1  0.96466600  0.77778400  0.50893300  1
  C  C52  1  0.53575300  0.32350200  0.49007700  1
  C  C53  1  0.46425200  0.32350200  0.50991200  1
  C  C54  1  0.03575300  0.82350200  0.49007700  1
  C  C55  1  0.96425200  0.82350200  0.50991200  1
  C  C56  1  0.50000200  0.34701300  0.49999500  1
  C  C57  1  0.02322000  0.18234300  0.52289300  1
  C  C58  1  0.00000200  0.84701300  0.49999500  1
  C  C59  1  0.50000100  0.70536100  0.50000000  1
  C  C60  1  0.00000100  0.20536100  0.50000000  1
  C  C61  1  0.63668800  0.46567100  0.49461000  1
  C  C62  1  0.64999600  0.48838800  0.54019900  1
  C  C63  1  0.64026600  0.46912400  0.60699200  1
  C  C64  1  0.65198600  0.49010800  0.65087200  1
  C  C65  1  0.67325400  0.53056800  0.62869500  1
  C  C66  1  0.68263300  0.55016900  0.56272000  1
  C  C67  1  0.67085000  0.52937400  0.51877800  1
  C  C68  1  0.97678200  0.18234400  0.47710700  1
  C  C69  1  0.36331500  0.46567100  0.50538400  1
  C  C70  1  0.35000700  0.48838900  0.45979700  1
  C  C71  1  0.35973600  0.46912600  0.39300300  1
  C  C72  1  0.34801600  0.49011100  0.34912400  1
  C  C73  1  0.32674800  0.53057100  0.37130300  1
  C  C74  1  0.31736800  0.55017100  0.43728000  1
  C  C75  1  0.32915200  0.52937500  0.48122000  1
  C  C76  1  0.13668800  0.96567100  0.49461000  1
  C  C77  1  0.14999600  0.98838800  0.54019900  1
  C  C78  1  0.14026600  0.96912400  0.60699200  1
  C  C79  1  0.96090200  0.27704200  0.52759400  1
  C  C80  1  0.15198600  0.99010800  0.65087200  1
  C  C81  1  0.17325400  0.03056800  0.62869500  1
  C  C82  1  0.18263300  0.05016900  0.56272000  1
  C  C83  1  0.17085000  0.02937400  0.51877800  1
  C  C84  1  0.86331500  0.96567100  0.50538400  1
  C  C85  1  0.85000700  0.98838900  0.45979700  1
  C  C86  1  0.85973600  0.96912600  0.39300300  1
  C  C87  1  0.84801600  0.99011100  0.34912400  1
  C  C88  1  0.82674800  0.03057100  0.37130300  1
  C  C89  1  0.81736800  0.05017100  0.43728000  1
  C  C90  1  0.03909900  0.27704200  0.47240600  1
  C  C91  1  0.82915200  0.02937500  0.48122000  1
  C  C92  1  0.55001500  0.61383500  0.54577300  1
  C  C93  1  0.54949400  0.62840300  0.61228600  1
  C  C94  1  0.58679700  0.62212000  0.61333000  1
  C  C95  1  0.58692000  0.63570800  0.67508200  1
  C  C96  1  0.54969700  0.65556800  0.73629700  1
  C  C97  1  0.51224700  0.66161500  0.73590400  1
  C  C98  1  0.51199100  0.64792600  0.67431000  1
  C  C99  1  0.44998700  0.61383600  0.45422700  1
  C  C100  1  0.45050700  0.62840500  0.38771400  1
  C  C101  1  0.46090200  0.77704200  0.52759400  1
  C  C102  1  0.41320300  0.62212200  0.38667100  1
  C  C103  1  0.41308000  0.63571200  0.32492000  1
  C  C104  1  0.45030300  0.65557200  0.26370500  1
  C  C105  1  0.48775300  0.66161800  0.26409700  1
  C  C106  1  0.48801000  0.64792800  0.32569100  1
  C  C107  1  0.05001500  0.11383500  0.54577300  1
  C  C108  1  0.04949400  0.12840300  0.61228600  1
  C  C109  1  0.08679700  0.12212000  0.61333000  1
  C  C110  1  0.08692000  0.13570800  0.67508200  1
  C  C111  1  0.04969700  0.15556800  0.73629700  1
  C  C112  1  0.08416700  0.48460600  0.90957400  1
  C  C113  1  0.53909900  0.77704200  0.47240600  1
  C  C114  1  0.01224700  0.16161500  0.73590400  1
  C  C115  1  0.01199100  0.14792600  0.67431000  1
  C  C116  1  0.94998700  0.11383600  0.45422700  1
  C  C117  1  0.95050700  0.12840500  0.38771400  1
  C  C118  1  0.91320300  0.12212200  0.38667100  1
  C  C119  1  0.91308000  0.13571200  0.32492000  1
  C  C120  1  0.95030300  0.15557200  0.26370500  1
  C  C121  1  0.98775300  0.16161800  0.26409700  1
  C  C122  1  0.98801000  0.14792800  0.32569100  1
  C  C123  1  0.57561200  0.34555100  0.47580000  1
  C  C124  1  0.96439900  0.48630500  0.26155100  1
  C  C125  1  0.61264900  0.35686800  0.39763600  1
  C  C126  1  0.65483600  0.36361300  0.38140300  1
  C  C127  1  0.69014700  0.37261200  0.30799700  1
  C  C128  1  0.68357100  0.37561500  0.25044400  1
  C  C129  1  0.64166300  0.36912000  0.26617300  1
  C  C130  1  0.60635100  0.35939700  0.33927400  1
  C  C131  1  0.42439400  0.34555100  0.52418800  1
  C  C132  1  0.38735500  0.35686700  0.60235200  1
  C  C133  1  0.34516800  0.36361100  0.61858300  1
  C  C134  1  0.30985700  0.37260900  0.69198900  1
  C  C135  1  0.03560400  0.48630500  0.73844600  1
  C  C136  1  0.31643100  0.37561200  0.74954400  1
  C  C137  1  0.35833900  0.36911700  0.73381600  1
  C  C138  1  0.39365200  0.35939600  0.66071500  1
  C  C139  1  0.07561200  0.84555100  0.47580000  1
  C  C140  1  0.11264900  0.85686800  0.39763600  1
  C  C141  1  0.15483600  0.86361300  0.38140300  1
  C  C142  1  0.19014700  0.87261200  0.30799700  1
  C  C143  1  0.18357100  0.87561500  0.25044400  1
  C  C144  1  0.14166300  0.86912000  0.26617300  1
  C  C145  1  0.10635100  0.85939700  0.33927400  1
  C  C146  1  0.46439900  0.98630500  0.26155100  1
  C  C147  1  0.92439400  0.84555100  0.52418800  1
  C  C148  1  0.88735500  0.85686700  0.60235200  1
  C  C149  1  0.84516800  0.86361100  0.61858300  1
  C  C150  1  0.80985700  0.87260900  0.69198900  1
  C  C151  1  0.81643100  0.87561200  0.74954400  1
  C  C152  1  0.85833900  0.86911700  0.73381600  1
  C  C153  1  0.89365200  0.85939600  0.66071500  1
  C  C154  1  0.95206900  0.41007000  0.33248200  1
  C  C155  1  0.97050800  0.36715500  0.33582400  1
  C  C156  1  0.94389100  0.32965100  0.35915900  1
  C  C157  1  0.53560400  0.98630500  0.73844600  1
  C  C158  1  0.96091000  0.28873700  0.35910300  1
  C  C159  1  0.00453900  0.28490900  0.33622300  1
  C  C160  1  0.03092700  0.32216100  0.31475100  1
  C  C161  1  0.01405100  0.36314400  0.31479600  1
  C  C162  1  0.04793300  0.41007000  0.66751500  1
  C  C163  1  0.02949300  0.36715500  0.66417500  1
  C  C164  1  0.05611000  0.32965100  0.64084100  1
  C  C165  1  0.03909100  0.28873700  0.64089800  1
  C  C166  1  0.99546100  0.28490900  0.66377900  1
  C  C167  1  0.96907300  0.32216200  0.68525000  1
  C  C168  1  0.98812700  0.51883700  0.28216100  1
  C  C169  1  0.98595000  0.36314500  0.68520400  1
  C  C170  1  0.45206900  0.91007000  0.33248200  1
  C  C171  1  0.47050800  0.86715500  0.33582400  1
  C  C172  1  0.44389100  0.82965100  0.35915900  1
  C  C173  1  0.46091000  0.78873700  0.35910300  1
  C  C174  1  0.50454000  0.78490900  0.33622300  1
  C  C175  1  0.53092700  0.82216100  0.31475100  1
  C  C176  1  0.51405100  0.86314400  0.31479600  1
  C  C177  1  0.54793300  0.91007000  0.66751500  1
  C  C178  1  0.52949300  0.86715500  0.66417500  1
  C  C179  1  0.01187700  0.51883700  0.71783500  1
  C  C180  1  0.55611000  0.82965100  0.64084100  1
  C  C181  1  0.53909100  0.78873700  0.64089800  1
  C  C182  1  0.49546100  0.78490900  0.66377900  1
  C  C183  1  0.46907300  0.82216200  0.68525000  1
  C  C184  1  0.48595000  0.86314500  0.68520400  1
  C  C185  1  0.05727300  0.55362800  0.15618400  1
  C  C186  1  0.10450200  0.54920500  0.09252300  1
  C  C187  1  0.13198500  0.58601700  0.06919100  1
  C  C188  1  0.17673800  0.58235600  0.01244500  1
  C  C189  1  0.19446200  0.54195800  0.97852100  1
  C  C190  1  0.48812700  0.01883700  0.28216100  1
  C  C191  1  0.16721700  0.50535200  0.00028300  1
  C  C192  1  0.12235300  0.50896100  0.05638900  1
  C  C193  1  0.94273200  0.55363000  0.84381200  1
  C  C194  1  0.89550200  0.54920700  0.90747400  1
  C  C195  1  0.86802000  0.58602000  0.93080500  1
  C  C196  1  0.82326700  0.58236000  0.98755000  1
  C  C197  1  0.80554200  0.54196200  0.02147500  1
  C  C198  1  0.83278700  0.50535600  0.99971400  1
  C  C199  1  0.87765100  0.50896400  0.94360800  1
  C  C200  1  0.55727300  0.05362800  0.15618400  1
  C  C201  1  0.51187700  0.01883700  0.71783500  1
  C  C202  1  0.60450200  0.04920500  0.09252300  1
  C  C203  1  0.63198500  0.08601700  0.06919100  1
  C  C204  1  0.67673800  0.08235600  0.01244500  1
  C  C205  1  0.69446200  0.04195800  0.97852100  1
  C  C206  1  0.66721700  0.00535200  0.00028300  1
  C  C207  1  0.62235300  0.00896100  0.05638900  1
  C  C208  1  0.44273200  0.05363000  0.84381200  1
  C  C209  1  0.39550200  0.04920700  0.90747400  1
  C  C210  1  0.36802000  0.08602000  0.93080500  1
  C  C211  1  0.32326700  0.08236000  0.98755000  1
  C  C212  1  0.00432400  0.48016400  0.30567200  1
  C  C213  1  0.30554200  0.04196200  0.02147500  1
  C  C214  1  0.33278700  0.00535600  0.99971400  1
  C  C215  1  0.37765100  0.00896400  0.94360800  1
  C  C216  1  0.41583600  0.98460700  0.09042300  1
  C  C217  1  0.99567900  0.48016500  0.69432500  1
  C  C218  1  0.50432400  0.98016400  0.30567200  1
  C  C219  1  0.49567900  0.98016500  0.69432500  1
  C  C220  1  0.98120100  0.44799800  0.28507400  1
  C  C221  1  0.01880200  0.44799900  0.71492400  1
  C  C222  1  0.48120100  0.94799800  0.28507400  1
  C  C223  1  0.51880200  0.94799900  0.71492400  1
  C  C224  1  0.02275700  0.44395000  0.20513600  1
  C  C225  1  0.97724500  0.44395100  0.79486100  1
  C  C226  1  0.52275700  0.94395000  0.20513600  1
  C  C227  1  0.58416700  0.98460600  0.90957400  1
  C  C228  1  0.47724500  0.94395100  0.79486100  1
  C  C229  1  0.04648200  0.47644900  0.22646700  1
  C  C230  1  0.95352200  0.47645100  0.77353000  1
  C  C231  1  0.54648200  0.97644900  0.22646700  1
  C  C232  1  0.45352200  0.97645100  0.77353000  1
  C  C233  1  0.02994500  0.51457500  0.20231000  1
  C  C234  1  0.97005900  0.51457700  0.79768600  1
  C  C235  1  0.52994500  0.01457500  0.20231000  1
  C  C236  1  0.47005900  0.01457700  0.79768600  1
  C  C237  1  0.00639200  0.48277300  0.18212600  1
  C  C238  1  0.00603600  0.48427100  0.11271800  1
  C  C239  1  0.99361100  0.48277300  0.81787100  1
  C  C240  1  0.50639200  0.98277300  0.18212600  1
  C  C241  1  0.49361100  0.98277300  0.81787100  1
  C  C242  1  0.79690900  0.51982100  0.19039800  1
  C  C243  1  0.20309400  0.51981900  0.80959800  1
  C  C244  1  0.29690900  0.01982100  0.19039800  1
  C  C245  1  0.70309400  0.01981900  0.80959800  1
  C  C246  1  0.84277100  0.52008100  0.14275200  1
  C  C247  1  0.15723200  0.52008000  0.85724400  1
  C  C248  1  0.34277100  0.02008100  0.14275200  1
  C  C249  1  0.99396700  0.48427100  0.88727900  1
  C  C250  1  0.65723200  0.02008000  0.85724400  1
  C  C251  1  0.86715900  0.48512000  0.14346600  1
  C  C252  1  0.13284400  0.48511800  0.85653100  1
  C  C253  1  0.36715900  0.98512000  0.14346600  1
  C  C254  1  0.63284400  0.98511800  0.85653100  1
  C  C255  1  0.84520600  0.45083700  0.19470100  1
  C  C256  1  0.15479700  0.45083600  0.80529600  1
  C  C257  1  0.34520600  0.95083700  0.19470100  1
  C  C258  1  0.65479700  0.95083600  0.80529600  1
  C  C259  1  0.79937700  0.45130600  0.24388700  1
  C  C260  1  0.50603600  0.98427100  0.11271800  1
  C  C261  1  0.20062600  0.45130500  0.75610800  1
  C  C262  1  0.29937700  0.95130600  0.24388700  1
  C  C263  1  0.70062600  0.95130500  0.75610800  1
  C  C264  1  0.77498400  0.48537200  0.24091900  1
  C  C265  1  0.22501900  0.48537100  0.75907700  1
  C  C266  1  0.27498400  0.98537200  0.24091900  1
  C  C267  1  0.72501900  0.98537100  0.75907700  1
  C  C268  1  0.70405500  0.47659100  0.36669100  1
  C  C269  1  0.29594800  0.47659000  0.63330300  1
  C  C270  1  0.20405500  0.97659100  0.36669100  1
  C  C271  1  0.49396700  0.98427100  0.88727900  1
  C  C272  1  0.79594800  0.97659000  0.63330300  1
  C  C273  1  0.65793400  0.47588000  0.41341500  1
  C  C274  1  0.34207000  0.47587900  0.58657900  1
  C  C275  1  0.15793400  0.97588000  0.41341500  1
  C  C276  1  0.84207000  0.97587900  0.58657900  1
  C  C277  1  0.63361900  0.48090200  0.38126300  1
  C  C278  1  0.36638500  0.48090000  0.61873200  1
  C  C279  1  0.13361900  0.98090200  0.38126300  1
  C  C280  1  0.86638500  0.98090000  0.61873200  1
  C  C281  1  0.65631500  0.48842400  0.30378600  1
  C  C282  1  0.96086300  0.32273100  0.52769000  1
  C  C283  1  0.34368800  0.48842100  0.69620900  1
  C  C284  1  0.15631500  0.98842400  0.30378600  1
  C  C285  1  0.84368800  0.98842100  0.69620900  1
  C  C286  1  0.70210100  0.49108200  0.25867200  1
  C  C287  1  0.29790300  0.49107900  0.74132300  1
  C  C288  1  0.20210100  0.99108200  0.25867200  1
  C  C289  1  0.79790300  0.99107900  0.74132300  1
  C  C290  1  0.72619700  0.48463000  0.28976300  1
  C  C291  1  0.27380700  0.48462800  0.71023200  1
  C  C292  1  0.22619700  0.98463000  0.28976300  1
  O  O1  1  0.93765600  0.44800500  0.08470400  1
  O  O2  1  0.98254700  0.44790500  0.92886800  1
  O  O3  1  0.51745600  0.94790500  0.07112900  1
  O  O4  1  0.48254700  0.94790500  0.92886800  1
  O  O5  1  0.99202600  0.52090600  0.09833100  1
  O  O6  1  0.00797700  0.52090600  0.90166600  1
  O  O7  1  0.49202600  0.02090600  0.09833100  1
  O  O8  1  0.50797700  0.02090600  0.90166600  1
  O  O9  1  0.03829300  0.54406200  0.46659200  1
  O  O10  1  0.96171000  0.54406200  0.53340500  1
  O  O11  1  0.53829300  0.04406200  0.46659200  1
  O  O12  1  0.06234700  0.44800500  0.91529300  1
  O  O13  1  0.46171000  0.04406200  0.53340500  1
  O  O14  1  0.04024100  0.47724200  0.37176600  1
  O  O15  1  0.95976200  0.47724200  0.62823100  1
  O  O16  1  0.54024100  0.97724200  0.37176600  1
  O  O17  1  0.45976200  0.97724200  0.62823100  1
  O  O18  1  0.96343800  0.47849600  0.44200300  1
  O  O19  1  0.03656500  0.47849600  0.55799400  1
  O  O20  1  0.46343800  0.97849600  0.44200300  1
  O  O21  1  0.53656500  0.97849600  0.55799400  1
  O  O22  1  0.03828700  0.41508500  0.46840000  1
  O  O23  1  0.43765600  0.94800500  0.08470400  1
  O  O24  1  0.96171600  0.41508500  0.53159800  1
  O  O25  1  0.53828700  0.91508500  0.46840000  1
  O  O26  1  0.46171600  0.91508500  0.53159800  1
  O  O27  1  0.48574700  0.54353200  0.56456900  1
  O  O28  1  0.51425500  0.54353300  0.43542800  1
  O  O29  1  0.98574700  0.04353200  0.56456900  1
  O  O30  1  0.01425500  0.04353300  0.43542800  1
  O  O31  1  0.56132800  0.49224700  0.49803100  1
  O  O32  1  0.43867500  0.49224700  0.50196300  1
  O  O33  1  0.06132800  0.99224700  0.49803100  1
  O  O34  1  0.56234700  0.94800500  0.91529300  1
  O  O35  1  0.93867500  0.99224700  0.50196300  1
  O  O36  1  0.56563200  0.46804700  0.39048400  1
  O  O37  1  0.43437200  0.46804600  0.60951000  1
  O  O38  1  0.06563200  0.96804700  0.39048400  1
  O  O39  1  0.93437200  0.96804600  0.60951000  1
  O  O40  1  0.50998900  0.41683700  0.54310800  1
  O  O41  1  0.49001600  0.41683700  0.45688300  1
  O  O42  1  0.00998900  0.91683700  0.54310800  1
  O  O43  1  0.99001600  0.91683700  0.45688300  1
  O  O44  1  0.60925800  0.43593300  0.52381900  1
  O  O45  1  0.93576700  0.52091500  0.05063200  1
  O  O46  1  0.39074500  0.43593400  0.47617400  1
  O  O47  1  0.10925800  0.93593300  0.52381900  1
  O  O48  1  0.89074500  0.93593400  0.47617400  1
  O  O49  1  0.57648300  0.58540100  0.50391400  1
  O  O50  1  0.42351800  0.58540200  0.49608500  1
  O  O51  1  0.07648300  0.08540100  0.50391400  1
  O  O52  1  0.92351800  0.08540200  0.49608500  1
  O  O53  1  0.58106800  0.34741500  0.52726800  1
  O  O54  1  0.41893900  0.34741600  0.47271800  1
  O  O55  1  0.08106800  0.84741500  0.52726800  1
  O  O56  1  0.06423700  0.52091400  0.94936500  1
  O  O57  1  0.91893900  0.84741600  0.47271800  1
  O  O58  1  0.91194000  0.41370000  0.36389100  1
  O  O59  1  0.08806200  0.41369900  0.63610700  1
  O  O60  1  0.41194000  0.91370000  0.36389100  1
  O  O61  1  0.58806200  0.91369900  0.63610700  1
  O  O62  1  0.04101500  0.59054300  0.17660900  1
  O  O63  1  0.95899000  0.59054400  0.82338600  1
  O  O64  1  0.54101500  0.09054300  0.17660900  1
  O  O65  1  0.45899000  0.09054400  0.82338600  1
  O  O66  1  0.43576700  0.02091500  0.05063200  1
  O  O67  1  0.56423700  0.02091400  0.94936500  1
  O  O68  1  0.01745600  0.44790500  0.07112900  1
