# generated using pymatgen
data_Cu3H48C76(NO3)4
_symmetry_space_group_name_H-M   'P 1'
_cell_length_a   21.55956000
_cell_length_b   21.55956000
_cell_length_c   38.27713300
_cell_angle_alpha   90.00000000
_cell_angle_beta   90.00000000
_cell_angle_gamma   90.00000000
_symmetry_Int_Tables_number   1
_chemical_formula_structural   Cu3H48C76(NO3)4
_chemical_formula_sum   'Cu12 H192 C304 N16 O48'
_cell_volume   17791.77131309
_cell_formula_units_Z   4
loop_
 _symmetry_equiv_pos_site_id
 _symmetry_equiv_pos_as_xyz
  1  'x, y, z'
loop_
 _atom_site_type_symbol
 _atom_site_label
 _atom_site_symmetry_multiplicity
 _atom_site_fract_x
 _atom_site_fract_y
 _atom_site_fract_z
 _atom_site_occupancy
  Cu  Cu1  1  0.56050100  0.00000000  0.50000000  1
  Cu  Cu2  1  0.00000000  0.56050100  0.50000000  1
  Cu  Cu3  1  0.43949900  0.00000000  0.50000000  1
  Cu  Cu4  1  0.00000000  0.43949900  0.50000000  1
  Cu  Cu5  1  0.06050100  0.50000000  0.00000000  1
  Cu  Cu6  1  0.50000000  0.06050100  0.00000000  1
  Cu  Cu7  1  0.93949900  0.50000000  0.00000000  1
  Cu  Cu8  1  0.50000000  0.93949900  0.00000000  1
  Cu  Cu9  1  0.50000000  0.50000000  0.53417200  1
  Cu  Cu10  1  0.50000000  0.50000000  0.46582800  1
  Cu  Cu11  1  0.00000000  0.00000000  0.03417200  1
  Cu  Cu12  1  0.00000000  0.00000000  0.96582800  1
  H  H1  1  0.41698100  0.05383400  0.39113700  1
  H  H2  1  0.94616600  0.41698100  0.39113700  1
  H  H3  1  0.58301900  0.94616600  0.39113700  1
  H  H4  1  0.05383400  0.58301900  0.39113700  1
  H  H5  1  0.41698100  0.94616600  0.60886300  1
  H  H6  1  0.94616600  0.58301900  0.60886300  1
  H  H7  1  0.58301900  0.05383400  0.60886300  1
  H  H8  1  0.05383400  0.41698100  0.60886300  1
  H  H9  1  0.91698100  0.55383400  0.89113700  1
  H  H10  1  0.44616600  0.91698100  0.89113700  1
  H  H11  1  0.08301900  0.44616600  0.89113700  1
  H  H12  1  0.55383400  0.08301900  0.89113700  1
  H  H13  1  0.91698100  0.44616600  0.10886300  1
  H  H14  1  0.44616600  0.08301900  0.10886300  1
  H  H15  1  0.08301900  0.55383400  0.10886300  1
  H  H16  1  0.55383400  0.91698100  0.10886300  1
  H  H17  1  0.41680800  0.05433800  0.32794400  1
  H  H18  1  0.94566200  0.41680800  0.32794400  1
  H  H19  1  0.58319200  0.94566200  0.32794400  1
  H  H20  1  0.05433800  0.58319200  0.32794400  1
  H  H21  1  0.41680800  0.94566200  0.67205600  1
  H  H22  1  0.94566200  0.58319200  0.67205600  1
  H  H23  1  0.58319200  0.05433800  0.67205600  1
  H  H24  1  0.05433800  0.41680800  0.67205600  1
  H  H25  1  0.91680800  0.55433800  0.82794400  1
  H  H26  1  0.44566200  0.91680800  0.82794400  1
  H  H27  1  0.08319200  0.44566200  0.82794400  1
  H  H28  1  0.55433800  0.08319200  0.82794400  1
  H  H29  1  0.91680800  0.44566200  0.17205600  1
  H  H30  1  0.44566200  0.08319200  0.17205600  1
  H  H31  1  0.08319200  0.55433800  0.17205600  1
  H  H32  1  0.55433800  0.91680800  0.17205600  1
  H  H33  1  0.42850300  0.13666600  0.44967900  1
  H  H34  1  0.86333400  0.42850300  0.44967900  1
  H  H35  1  0.57149700  0.86333400  0.44967900  1
  H  H36  1  0.13666600  0.57149700  0.44967900  1
  H  H37  1  0.42850300  0.86333400  0.55032100  1
  H  H38  1  0.86333400  0.57149700  0.55032100  1
  H  H39  1  0.57149700  0.13666600  0.55032100  1
  H  H40  1  0.13666600  0.42850300  0.55032100  1
  H  H41  1  0.92850300  0.63666600  0.94967900  1
  H  H42  1  0.36333400  0.92850300  0.94967900  1
  H  H43  1  0.07149700  0.36333400  0.94967900  1
  H  H44  1  0.63666600  0.07149700  0.94967900  1
  H  H45  1  0.92850300  0.36333400  0.05032100  1
  H  H46  1  0.36333400  0.07149700  0.05032100  1
  H  H47  1  0.07149700  0.63666600  0.05032100  1
  H  H48  1  0.63666600  0.92850300  0.05032100  1
  H  H49  1  0.35576500  0.30691200  0.41354300  1
  H  H50  1  0.69308800  0.35576500  0.41354300  1
  H  H51  1  0.64423500  0.69308800  0.41354300  1
  H  H52  1  0.30691200  0.64423500  0.41354300  1
  H  H53  1  0.35576500  0.69308800  0.58645700  1
  H  H54  1  0.69308800  0.64423500  0.58645700  1
  H  H55  1  0.64423500  0.30691200  0.58645700  1
  H  H56  1  0.30691200  0.35576500  0.58645700  1
  H  H57  1  0.85576500  0.80691200  0.91354300  1
  H  H58  1  0.19308800  0.85576500  0.91354300  1
  H  H59  1  0.14423500  0.19308800  0.91354300  1
  H  H60  1  0.80691200  0.14423500  0.91354300  1
  H  H61  1  0.85576500  0.19308800  0.08645700  1
  H  H62  1  0.19308800  0.14423500  0.08645700  1
  H  H63  1  0.14423500  0.80691200  0.08645700  1
  H  H64  1  0.80691200  0.85576500  0.08645700  1
  H  H65  1  0.41678400  0.36299100  0.45471800  1
  H  H66  1  0.63700900  0.41678400  0.45471800  1
  H  H67  1  0.58321600  0.63700900  0.45471800  1
  H  H68  1  0.36299100  0.58321600  0.45471800  1
  H  H69  1  0.41678400  0.63700900  0.54528200  1
  H  H70  1  0.63700900  0.58321600  0.54528200  1
  H  H71  1  0.58321600  0.36299100  0.54528200  1
  H  H72  1  0.36299100  0.41678400  0.54528200  1
  H  H73  1  0.91678400  0.86299100  0.95471800  1
  H  H74  1  0.13700900  0.91678400  0.95471800  1
  H  H75  1  0.08321600  0.13700900  0.95471700  1
  H  H76  1  0.86299100  0.08321600  0.95471800  1
  H  H77  1  0.91678400  0.13700900  0.04528200  1
  H  H78  1  0.13700900  0.08321600  0.04528300  1
  H  H79  1  0.08321600  0.86299100  0.04528200  1
  H  H80  1  0.86299100  0.91678400  0.04528200  1
  H  H81  1  0.62289000  0.24371600  0.63900000  1
  H  H82  1  0.68068600  0.18508400  0.68259300  1
  H  H83  1  0.74253500  0.10137500  0.69885100  1
  H  H84  1  0.79701800  0.07793500  0.66546000  1
  H  H85  1  0.72799900  0.03228000  0.67340700  1
  H  H86  1  0.73801600  0.05685400  0.60414100  1
  H  H87  1  0.68072500  0.11581900  0.56017100  1
  H  H88  1  0.75628400  0.62289000  0.63900000  1
  H  H89  1  0.81491600  0.68068600  0.68259300  1
  H  H90  1  0.89862500  0.74253500  0.69885100  1
  H  H91  1  0.92206400  0.79701800  0.66546000  1
  H  H92  1  0.96772000  0.72799900  0.67340700  1
  H  H93  1  0.94314600  0.73801600  0.60414100  1
  H  H94  1  0.88418100  0.68072500  0.56017100  1
  H  H95  1  0.37711000  0.75628400  0.63899900  1
  H  H96  1  0.31931400  0.81491600  0.68259300  1
  H  H97  1  0.25746500  0.89862500  0.69885100  1
  H  H98  1  0.20298200  0.92206400  0.66546000  1
  H  H99  1  0.27200000  0.96772000  0.67340700  1
  H  H100  1  0.26198400  0.94314600  0.60414100  1
  H  H101  1  0.31927500  0.88418100  0.56017100  1
  H  H102  1  0.24371600  0.37711000  0.63899900  1
  H  H103  1  0.18508400  0.31931400  0.68259300  1
  H  H104  1  0.10137500  0.25746500  0.69885100  1
  H  H105  1  0.07793500  0.20298200  0.66546000  1
  H  H106  1  0.03228000  0.27200000  0.67340700  1
  H  H107  1  0.05685400  0.26198400  0.60414100  1
  H  H108  1  0.11581900  0.31927500  0.56017100  1
  H  H109  1  0.62289000  0.75628400  0.36100100  1
  H  H110  1  0.68068600  0.81491600  0.31740700  1
  H  H111  1  0.74253500  0.89862500  0.30114900  1
  H  H112  1  0.79701800  0.92206400  0.33454000  1
  H  H113  1  0.72799900  0.96772000  0.32659300  1
  H  H114  1  0.73801600  0.94314600  0.39585900  1
  H  H115  1  0.68072500  0.88418100  0.43982900  1
  H  H116  1  0.75628400  0.37711000  0.36100100  1
  H  H117  1  0.81491600  0.31931400  0.31740700  1
  H  H118  1  0.89862500  0.25746500  0.30114900  1
  H  H119  1  0.92206400  0.20298200  0.33454000  1
  H  H120  1  0.96772000  0.27200000  0.32659300  1
  H  H121  1  0.94314600  0.26198400  0.39585900  1
  H  H122  1  0.88418100  0.31927500  0.43982900  1
  H  H123  1  0.37711000  0.24371600  0.36100100  1
  H  H124  1  0.31931400  0.18508400  0.31740700  1
  H  H125  1  0.25746500  0.10137500  0.30114900  1
  H  H126  1  0.20298200  0.07793500  0.33454000  1
  H  H127  1  0.27200000  0.03228000  0.32659300  1
  H  H128  1  0.26198400  0.05685400  0.39585900  1
  H  H129  1  0.31927500  0.11581900  0.43982900  1
  H  H130  1  0.24371600  0.62289000  0.36100100  1
  H  H131  1  0.18508400  0.68068600  0.31740700  1
  H  H132  1  0.10137500  0.74253500  0.30114900  1
  H  H133  1  0.07793500  0.79701800  0.33454000  1
  H  H134  1  0.03228000  0.72799900  0.32659300  1
  H  H135  1  0.05685400  0.73801600  0.39585900  1
  H  H136  1  0.11581900  0.68072500  0.43982900  1
  H  H137  1  0.12289000  0.74371600  0.13900000  1
  H  H138  1  0.18068600  0.68508400  0.18259300  1
  H  H139  1  0.24253500  0.60137500  0.19885100  1
  H  H140  1  0.29701800  0.57793500  0.16546000  1
  H  H141  1  0.22799900  0.53228000  0.17340700  1
  H  H142  1  0.23801600  0.55685400  0.10414100  1
  H  H143  1  0.18072500  0.61581900  0.06017100  1
  H  H144  1  0.25628400  0.12289000  0.13900000  1
  H  H145  1  0.31491600  0.18068600  0.18259300  1
  H  H146  1  0.39862500  0.24253500  0.19885100  1
  H  H147  1  0.42206400  0.29701800  0.16546000  1
  H  H148  1  0.46772000  0.22800000  0.17340700  1
  H  H149  1  0.44314600  0.23801600  0.10414100  1
  H  H150  1  0.38418100  0.18072500  0.06017100  1
  H  H151  1  0.87711000  0.25628400  0.13899900  1
  H  H152  1  0.81931400  0.31491600  0.18259300  1
  H  H153  1  0.75746500  0.39862500  0.19885100  1
  H  H154  1  0.70298200  0.42206400  0.16546000  1
  H  H155  1  0.77200000  0.46772000  0.17340700  1
  H  H156  1  0.76198400  0.44314600  0.10414100  1
  H  H157  1  0.81927500  0.38418100  0.06017100  1
  H  H158  1  0.74371600  0.87711000  0.13900000  1
  H  H159  1  0.68508400  0.81931400  0.18259300  1
  H  H160  1  0.60137500  0.75746500  0.19885100  1
  H  H161  1  0.57793500  0.70298200  0.16546000  1
  H  H162  1  0.53228000  0.77200000  0.17340700  1
  H  H163  1  0.55685400  0.76198400  0.10414100  1
  H  H164  1  0.61581900  0.81927500  0.06017100  1
  H  H165  1  0.12289000  0.25628400  0.86100100  1
  H  H166  1  0.18068600  0.31491600  0.81740700  1
  H  H167  1  0.24253500  0.39862500  0.80114900  1
  H  H168  1  0.29701800  0.42206400  0.83454000  1
  H  H169  1  0.22799900  0.46772000  0.82659300  1
  H  H170  1  0.23801600  0.44314600  0.89585900  1
  H  H171  1  0.18072500  0.38418100  0.93982900  1
  H  H172  1  0.25628400  0.87711000  0.86100100  1
  H  H173  1  0.31491600  0.81931400  0.81740700  1
  H  H174  1  0.39862500  0.75746500  0.80114900  1
  H  H175  1  0.42206400  0.70298200  0.83454000  1
  H  H176  1  0.46772000  0.77200000  0.82659300  1
  H  H177  1  0.44314600  0.76198400  0.89585900  1
  H  H178  1  0.38418100  0.81927500  0.93982900  1
  H  H179  1  0.87711000  0.74371600  0.86100100  1
  H  H180  1  0.81931400  0.68508400  0.81740700  1
  H  H181  1  0.75746500  0.60137500  0.80114900  1
  H  H182  1  0.70298200  0.57793500  0.83454000  1
  H  H183  1  0.77200000  0.53228000  0.82659300  1
  H  H184  1  0.76198400  0.55685400  0.89585900  1
  H  H185  1  0.81927500  0.61581900  0.93982900  1
  H  H186  1  0.74371600  0.12289000  0.86100000  1
  H  H187  1  0.68508400  0.18068600  0.81740700  1
  H  H188  1  0.60137500  0.24253500  0.80114900  1
  H  H189  1  0.57793500  0.29701800  0.83454000  1
  H  H190  1  0.53228000  0.22799900  0.82659300  1
  H  H191  1  0.55685400  0.23801600  0.89585900  1
  H  H192  1  0.61581900  0.18072500  0.93982900  1
  C  C1  1  0.50000000  0.11749900  0.50000000  1
  C  C2  1  0.88250100  0.50000000  0.50000000  1
  C  C3  1  0.50000000  0.88250100  0.50000000  1
  C  C4  1  0.11749900  0.50000000  0.50000000  1
  C  C5  1  0.00000000  0.61749900  0.00000000  1
  C  C6  1  0.38250100  0.00000000  0.00000000  1
  C  C7  1  0.00000000  0.38250100  0.00000000  1
  C  C8  1  0.61749900  0.00000000  0.00000000  1
  C  C9  1  0.50000000  0.00000000  0.43390200  1
  C  C10  1  0.00000000  0.50000000  0.43390200  1
  C  C11  1  0.50000000  0.00000000  0.56609800  1
  C  C12  1  0.00000000  0.50000000  0.56609800  1
  C  C13  1  0.00000000  0.50000000  0.93390200  1
  C  C14  1  0.50000000  0.00000000  0.93390200  1
  C  C15  1  0.00000000  0.50000000  0.06609800  1
  C  C16  1  0.50000000  0.00000000  0.06609800  1
  C  C17  1  0.45351600  0.02990400  0.37745600  1
  C  C18  1  0.97009600  0.45351600  0.37745600  1
  C  C19  1  0.54648400  0.97009600  0.37745600  1
  C  C20  1  0.02990400  0.54648400  0.37745600  1
  C  C21  1  0.45351600  0.97009600  0.62254400  1
  C  C22  1  0.97009600  0.54648400  0.62254400  1
  C  C23  1  0.54648400  0.02990400  0.62254400  1
  C  C24  1  0.02990400  0.45351600  0.62254400  1
  C  C25  1  0.95351600  0.52990400  0.87745600  1
  C  C26  1  0.47009600  0.95351600  0.87745600  1
  C  C27  1  0.04648400  0.47009600  0.87745600  1
  C  C28  1  0.52990400  0.04648400  0.87745600  1
  C  C29  1  0.95351600  0.47009600  0.12254400  1
  C  C30  1  0.47009600  0.04648400  0.12254400  1
  C  C31  1  0.04648400  0.52990400  0.12254400  1
  C  C32  1  0.52990400  0.95351600  0.12254400  1
  C  C33  1  0.45373000  0.03041000  0.34146100  1
  C  C34  1  0.96959000  0.45373000  0.34146100  1
  C  C35  1  0.54627000  0.96959000  0.34146100  1
  C  C36  1  0.03041000  0.54627000  0.34146100  1
  C  C37  1  0.45373000  0.96959000  0.65853900  1
  C  C38  1  0.96959000  0.54627000  0.65853900  1
  C  C39  1  0.54627000  0.03041000  0.65853900  1
  C  C40  1  0.03041000  0.45373000  0.65853900  1
  C  C41  1  0.95373000  0.53041000  0.84146100  1
  C  C42  1  0.46959000  0.95373000  0.84146100  1
  C  C43  1  0.04627000  0.46959000  0.84146100  1
  C  C44  1  0.53041000  0.04627000  0.84146100  1
  C  C45  1  0.95373000  0.46959000  0.15853900  1
  C  C46  1  0.46959000  0.04627000  0.15853900  1
  C  C47  1  0.04627000  0.53041000  0.15853900  1
  C  C48  1  0.53041000  0.95373000  0.15853900  1
  C  C49  1  0.50000000  0.00000000  0.32323300  1
  C  C50  1  0.00000000  0.50000000  0.32323300  1
  C  C51  1  0.50000000  0.00000000  0.67676700  1
  C  C52  1  0.00000000  0.50000000  0.67676700  1
  C  C53  1  0.00000000  0.50000000  0.82323300  1
  C  C54  1  0.50000000  0.00000000  0.82323300  1
  C  C55  1  0.00000000  0.50000000  0.17676700  1
  C  C56  1  0.50000000  0.00000000  0.17676700  1
  C  C57  1  0.50000000  0.00000000  0.39564300  1
  C  C58  1  0.00000000  0.50000000  0.39564300  1
  C  C59  1  0.50000000  0.00000000  0.60435700  1
  C  C60  1  0.00000000  0.50000000  0.60435700  1
  C  C61  1  0.00000000  0.50000000  0.89564300  1
  C  C62  1  0.50000000  0.00000000  0.89564300  1
  C  C63  1  0.00000000  0.50000000  0.10435700  1
  C  C64  1  0.50000000  0.00000000  0.10435700  1
  C  C65  1  0.50000000  0.00000000  0.21506500  1
  C  C66  1  0.00000000  0.50000000  0.21506500  1
  C  C67  1  0.50000000  0.00000000  0.78493500  1
  C  C68  1  0.00000000  0.50000000  0.78493500  1
  C  C69  1  0.00000000  0.50000000  0.71506500  1
  C  C70  1  0.50000000  0.00000000  0.71506500  1
  C  C71  1  0.00000000  0.50000000  0.28493500  1
  C  C72  1  0.50000000  0.00000000  0.28493500  1
  C  C73  1  0.42655600  0.18628500  0.45229300  1
  C  C74  1  0.81371500  0.42655600  0.45229300  1
  C  C75  1  0.57344400  0.81371500  0.45229300  1
  C  C76  1  0.18628500  0.57344400  0.45229300  1
  C  C77  1  0.42655600  0.81371500  0.54770700  1
  C  C78  1  0.81371500  0.57344400  0.54770700  1
  C  C79  1  0.57344400  0.18628500  0.54770700  1
  C  C80  1  0.18628500  0.42655600  0.54770700  1
  C  C81  1  0.92655600  0.68628500  0.95229300  1
  C  C82  1  0.31371500  0.92655600  0.95229300  1
  C  C83  1  0.07344400  0.31371500  0.95229300  1
  C  C84  1  0.68628500  0.07344400  0.95229300  1
  C  C85  1  0.92655600  0.31371500  0.04770700  1
  C  C86  1  0.31371500  0.07344400  0.04770700  1
  C  C87  1  0.07344400  0.68628500  0.04770700  1
  C  C88  1  0.68628500  0.92655600  0.04770700  1
  C  C89  1  0.38885600  0.21786900  0.42933800  1
  C  C90  1  0.78213100  0.38885600  0.42933800  1
  C  C91  1  0.61114400  0.78213100  0.42933800  1
  C  C92  1  0.21786900  0.61114400  0.42933800  1
  C  C93  1  0.38885600  0.78213100  0.57066200  1
  C  C94  1  0.78213100  0.61114400  0.57066200  1
  C  C95  1  0.61114400  0.21786900  0.57066200  1
  C  C96  1  0.21786900  0.38885600  0.57066200  1
  C  C97  1  0.88885600  0.71786900  0.92933800  1
  C  C98  1  0.28213100  0.88885600  0.92933800  1
  C  C99  1  0.11114400  0.28213100  0.92933800  1
  C  C100  1  0.71786900  0.11114400  0.92933800  1
  C  C101  1  0.88885600  0.28213100  0.07066200  1
  C  C102  1  0.28213100  0.11114400  0.07066200  1
  C  C103  1  0.11114400  0.71786900  0.07066200  1
  C  C104  1  0.71786900  0.88885600  0.07066200  1
  C  C105  1  0.38630300  0.28146200  0.43074300  1
  C  C106  1  0.71853800  0.38630300  0.43074300  1
  C  C107  1  0.61369700  0.71853800  0.43074300  1
  C  C108  1  0.28146200  0.61369700  0.43074300  1
  C  C109  1  0.38630300  0.71853800  0.56925700  1
  C  C110  1  0.71853800  0.61369700  0.56925700  1
  C  C111  1  0.61369700  0.28146200  0.56925700  1
  C  C112  1  0.28146200  0.38630300  0.56925700  1
  C  C113  1  0.88630300  0.78146200  0.93074300  1
  C  C114  1  0.21853800  0.88630300  0.93074300  1
  C  C115  1  0.11369700  0.21853800  0.93074300  1
  C  C116  1  0.78146200  0.11369700  0.93074300  1
  C  C117  1  0.88630300  0.21853800  0.06925700  1
  C  C118  1  0.21853800  0.11369700  0.06925700  1
  C  C119  1  0.11369700  0.78146200  0.06925700  1
  C  C120  1  0.78146200  0.88630300  0.06925700  1
  C  C121  1  0.42188800  0.31333400  0.45450500  1
  C  C122  1  0.68666600  0.42188800  0.45450500  1
  C  C123  1  0.57811200  0.68666600  0.45450500  1
  C  C124  1  0.31333400  0.57811200  0.45450500  1
  C  C125  1  0.42188800  0.68666600  0.54549500  1
  C  C126  1  0.68666600  0.57811200  0.54549500  1
  C  C127  1  0.57811200  0.31333400  0.54549500  1
  C  C128  1  0.31333400  0.42188800  0.54549500  1
  C  C129  1  0.92188800  0.81333400  0.95450500  1
  C  C130  1  0.18666600  0.92188800  0.95450500  1
  C  C131  1  0.07811200  0.18666600  0.95450500  1
  C  C132  1  0.81333400  0.07811200  0.95450500  1
  C  C133  1  0.92188800  0.18666600  0.04549500  1
  C  C134  1  0.18666600  0.07811200  0.04549500  1
  C  C135  1  0.07811200  0.81333400  0.04549500  1
  C  C136  1  0.81333400  0.92188800  0.04549500  1
  C  C137  1  0.46177800  0.28210800  0.47700600  1
  C  C138  1  0.71789200  0.46177800  0.47700600  1
  C  C139  1  0.53822200  0.71789200  0.47700600  1
  C  C140  1  0.28210800  0.53822200  0.47700600  1
  C  C141  1  0.46177800  0.71789200  0.52299400  1
  C  C142  1  0.71789200  0.53822200  0.52299400  1
  C  C143  1  0.53822200  0.28210800  0.52299400  1
  C  C144  1  0.28210800  0.46177800  0.52299400  1
  C  C145  1  0.96177800  0.78210800  0.97700600  1
  C  C146  1  0.21789200  0.96177800  0.97700600  1
  C  C147  1  0.03822200  0.21789200  0.97700600  1
  C  C148  1  0.78210800  0.03822200  0.97700600  1
  C  C149  1  0.96177800  0.21789200  0.02299400  1
  C  C150  1  0.21789200  0.03822200  0.02299400  1
  C  C151  1  0.03822200  0.78210800  0.02299400  1
  C  C152  1  0.78210800  0.96177800  0.02299400  1
  C  C153  1  0.46260900  0.21785500  0.47661000  1
  C  C154  1  0.78214500  0.46260900  0.47661000  1
  C  C155  1  0.53739100  0.78214500  0.47661000  1
  C  C156  1  0.21785500  0.53739100  0.47661000  1
  C  C157  1  0.46260900  0.78214500  0.52339000  1
  C  C158  1  0.78214500  0.53739100  0.52339000  1
  C  C159  1  0.53739100  0.21785500  0.52339000  1
  C  C160  1  0.21785500  0.46260900  0.52339000  1
  C  C161  1  0.96260900  0.71785500  0.97661000  1
  C  C162  1  0.28214500  0.96260900  0.97661000  1
  C  C163  1  0.03739100  0.28214500  0.97661000  1
  C  C164  1  0.71785500  0.03739100  0.97661000  1
  C  C165  1  0.96260900  0.28214500  0.02339000  1
  C  C166  1  0.28214500  0.03739100  0.02339000  1
  C  C167  1  0.03739100  0.71785500  0.02339000  1
  C  C168  1  0.71785500  0.96260900  0.02339000  1
  C  C169  1  0.50000000  0.31444100  0.50000000  1
  C  C170  1  0.68555900  0.50000000  0.50000000  1
  C  C171  1  0.50000000  0.68555900  0.50000000  1
  C  C172  1  0.31444100  0.50000000  0.50000000  1
  C  C173  1  0.00000000  0.81444100  0.00000000  1
  C  C174  1  0.18555900  0.00000000  0.00000000  1
  C  C175  1  0.00000000  0.18555900  0.00000000  1
  C  C176  1  0.81444100  0.00000000  0.00000000  1
  C  C177  1  0.50000000  0.18560100  0.50000000  1
  C  C178  1  0.81439900  0.50000000  0.50000000  1
  C  C179  1  0.50000000  0.81439900  0.50000000  1
  C  C180  1  0.18560100  0.50000000  0.50000000  1
  C  C181  1  0.00000000  0.68560100  0.00000000  1
  C  C182  1  0.31439900  0.00000000  0.00000000  1
  C  C183  1  0.00000000  0.31439900  0.00000000  1
  C  C184  1  0.68560100  0.00000000  0.00000000  1
  C  C185  1  0.61743000  0.50000000  0.50000000  1
  C  C186  1  0.50000000  0.61743000  0.50000000  1
  C  C187  1  0.38257000  0.50000000  0.50000000  1
  C  C188  1  0.50000000  0.38257000  0.50000000  1
  C  C189  1  0.11743000  0.00000000  0.00000000  1
  C  C190  1  0.00000000  0.11743000  0.00000000  1
  C  C191  1  0.88257000  0.00000000  0.00000000  1
  C  C192  1  0.00000000  0.88257000  0.00000000  1
  C  C193  1  0.64773400  0.18378600  0.59659000  1
  C  C194  1  0.64880800  0.20324600  0.63097600  1
  C  C195  1  0.68111400  0.16982900  0.65569900  1
  C  C196  1  0.71301800  0.11701800  0.64612600  1
  C  C197  1  0.74723800  0.07996800  0.67265600  1
  C  C198  1  0.71293200  0.09811000  0.61173800  1
  C  C199  1  0.68034000  0.13127000  0.58703100  1
  C  C200  1  0.81621400  0.64773400  0.59659000  1
  C  C201  1  0.79675300  0.64880800  0.63097600  1
  C  C202  1  0.83017000  0.68111400  0.65569900  1
  C  C203  1  0.88298200  0.71301800  0.64612600  1
  C  C204  1  0.92003200  0.74723800  0.67265600  1
  C  C205  1  0.90189000  0.71293200  0.61173800  1
  C  C206  1  0.86873000  0.68034000  0.58703100  1
  C  C207  1  0.35226600  0.81621400  0.59659000  1
  C  C208  1  0.35119200  0.79675300  0.63097600  1
  C  C209  1  0.31888600  0.83017000  0.65569900  1
  C  C210  1  0.28698200  0.88298200  0.64612600  1
  C  C211  1  0.25276200  0.92003200  0.67265600  1
  C  C212  1  0.28706800  0.90189000  0.61173800  1
  C  C213  1  0.31966000  0.86873000  0.58703100  1
  C  C214  1  0.18378600  0.35226600  0.59659000  1
  C  C215  1  0.20324600  0.35119200  0.63097600  1
  C  C216  1  0.16982900  0.31888600  0.65569900  1
  C  C217  1  0.11701800  0.28698200  0.64612600  1
  C  C218  1  0.07996800  0.25276200  0.67265600  1
  C  C219  1  0.09811000  0.28706800  0.61173800  1
  C  C220  1  0.13127000  0.31966000  0.58703100  1
  C  C221  1  0.64773400  0.81621400  0.40341000  1
  C  C222  1  0.64880800  0.79675300  0.36902400  1
  C  C223  1  0.68111400  0.83017000  0.34430100  1
  C  C224  1  0.71301800  0.88298200  0.35387400  1
  C  C225  1  0.74723800  0.92003200  0.32734400  1
  C  C226  1  0.71293200  0.90189000  0.38826200  1
  C  C227  1  0.68034000  0.86873000  0.41296900  1
  C  C228  1  0.81621400  0.35226600  0.40341000  1
  C  C229  1  0.79675300  0.35119200  0.36902400  1
  C  C230  1  0.83017000  0.31888600  0.34430100  1
  C  C231  1  0.88298200  0.28698200  0.35387400  1
  C  C232  1  0.92003200  0.25276200  0.32734400  1
  C  C233  1  0.90189000  0.28706800  0.38826200  1
  C  C234  1  0.86873000  0.31966000  0.41296900  1
  C  C235  1  0.35226600  0.18378600  0.40341000  1
  C  C236  1  0.35119200  0.20324600  0.36902400  1
  C  C237  1  0.31888600  0.16983000  0.34430100  1
  C  C238  1  0.28698200  0.11701800  0.35387400  1
  C  C239  1  0.25276200  0.07996800  0.32734400  1
  C  C240  1  0.28706800  0.09811000  0.38826200  1
  C  C241  1  0.31966000  0.13127000  0.41296900  1
  C  C242  1  0.18378600  0.64773400  0.40341000  1
  C  C243  1  0.20324600  0.64880800  0.36902400  1
  C  C244  1  0.16982900  0.68111400  0.34430100  1
  C  C245  1  0.11701800  0.71301800  0.35387400  1
  C  C246  1  0.07996800  0.74723800  0.32734400  1
  C  C247  1  0.09811000  0.71293200  0.38826200  1
  C  C248  1  0.13127000  0.68034000  0.41296900  1
  C  C249  1  0.14773400  0.68378600  0.09659000  1
  C  C250  1  0.14880800  0.70324600  0.13097600  1
  C  C251  1  0.18111400  0.66983000  0.15569900  1
  C  C252  1  0.21301800  0.61701800  0.14612600  1
  C  C253  1  0.24723800  0.57996800  0.17265600  1
  C  C254  1  0.21293200  0.59811000  0.11173800  1
  C  C255  1  0.18034000  0.63127000  0.08703100  1
  C  C256  1  0.31621400  0.14773400  0.09659000  1
  C  C257  1  0.29675300  0.14880800  0.13097600  1
  C  C258  1  0.33017000  0.18111400  0.15569900  1
  C  C259  1  0.38298200  0.21301800  0.14612600  1
  C  C260  1  0.42003200  0.24723800  0.17265600  1
  C  C261  1  0.40189000  0.21293200  0.11173800  1
  C  C262  1  0.36873000  0.18034000  0.08703100  1
  C  C263  1  0.85226600  0.31621400  0.09659000  1
  C  C264  1  0.85119200  0.29675300  0.13097600  1
  C  C265  1  0.81888600  0.33017000  0.15569900  1
  C  C266  1  0.78698200  0.38298200  0.14612600  1
  C  C267  1  0.75276200  0.42003200  0.17265600  1
  C  C268  1  0.78706800  0.40189000  0.11173800  1
  C  C269  1  0.81966000  0.36873000  0.08703100  1
  C  C270  1  0.68378600  0.85226600  0.09659000  1
  C  C271  1  0.70324600  0.85119200  0.13097600  1
  C  C272  1  0.66982900  0.81888600  0.15569900  1
  C  C273  1  0.61701800  0.78698200  0.14612600  1
  C  C274  1  0.57996800  0.75276200  0.17265600  1
  C  C275  1  0.59811000  0.78706800  0.11173800  1
  C  C276  1  0.63127000  0.81966000  0.08703100  1
  C  C277  1  0.14773400  0.31621400  0.90341000  1
  C  C278  1  0.14880800  0.29675300  0.86902400  1
  C  C279  1  0.18111400  0.33017000  0.84430100  1
  C  C280  1  0.21301800  0.38298200  0.85387400  1
  C  C281  1  0.24723800  0.42003200  0.82734400  1
  C  C282  1  0.21293200  0.40189000  0.88826200  1
  C  C283  1  0.18034000  0.36873000  0.91296900  1
  C  C284  1  0.31621400  0.85226600  0.90341000  1
  C  C285  1  0.29675300  0.85119200  0.86902400  1
  C  C286  1  0.33017000  0.81888600  0.84430100  1
  C  C287  1  0.38298200  0.78698200  0.85387400  1
  C  C288  1  0.42003200  0.75276200  0.82734400  1
  C  C289  1  0.40189000  0.78706800  0.88826200  1
  C  C290  1  0.36873000  0.81966000  0.91296900  1
  C  C291  1  0.85226600  0.68378600  0.90341000  1
  C  C292  1  0.85119200  0.70324600  0.86902400  1
  C  C293  1  0.81888600  0.66983000  0.84430100  1
  C  C294  1  0.78698200  0.61701800  0.85387400  1
  C  C295  1  0.75276200  0.57996800  0.82734400  1
  C  C296  1  0.78706800  0.59811000  0.88826200  1
  C  C297  1  0.81966000  0.63127000  0.91296900  1
  C  C298  1  0.68378600  0.14773400  0.90341000  1
  C  C299  1  0.70324600  0.14880800  0.86902400  1
  C  C300  1  0.66982900  0.18111400  0.84430100  1
  C  C301  1  0.61701800  0.21301800  0.85387400  1
  C  C302  1  0.57996800  0.24723800  0.82734400  1
  C  C303  1  0.59811000  0.21293200  0.88826200  1
  C  C304  1  0.63127000  0.18034000  0.91296900  1
  N  N1  1  0.53820200  0.96193000  0.26726400  1
  N  N2  1  0.03807000  0.53820200  0.26726400  1
  N  N3  1  0.46179800  0.03807000  0.26726400  1
  N  N4  1  0.96193000  0.46179800  0.26726400  1
  N  N5  1  0.53820200  0.03807000  0.73273600  1
  N  N6  1  0.03807000  0.46179800  0.73273600  1
  N  N7  1  0.46179800  0.96193000  0.73273600  1
  N  N8  1  0.96193000  0.53820200  0.73273600  1
  N  N9  1  0.03820200  0.46193000  0.76726400  1
  N  N10  1  0.53807000  0.03820200  0.76726400  1
  N  N11  1  0.96179800  0.53807000  0.76726400  1
  N  N12  1  0.46193000  0.96179800  0.76726400  1
  N  N13  1  0.03820200  0.53807000  0.23273600  1
  N  N14  1  0.53807000  0.96179800  0.23273600  1
  N  N15  1  0.96179800  0.46193000  0.23273600  1
  N  N16  1  0.46193000  0.03820200  0.23273600  1
  O  O1  1  0.55112600  0.08838300  0.49032600  1
  O  O2  1  0.91161600  0.55112600  0.49032600  1
  O  O3  1  0.44887400  0.91161700  0.49032600  1
  O  O4  1  0.08838300  0.44887400  0.49032600  1
  O  O5  1  0.55112600  0.91161700  0.50967400  1
  O  O6  1  0.91161600  0.44887400  0.50967400  1
  O  O7  1  0.44887400  0.08838300  0.50967400  1
  O  O8  1  0.08838300  0.55112600  0.50967400  1
  O  O9  1  0.05112600  0.58838300  0.99032600  1
  O  O10  1  0.41161600  0.05112600  0.99032600  1
  O  O11  1  0.94887400  0.41161700  0.99032600  1
  O  O12  1  0.58838300  0.94887400  0.99032600  1
  O  O13  1  0.05112600  0.41161700  0.00967400  1
  O  O14  1  0.41161600  0.94887400  0.00967400  1
  O  O15  1  0.94887400  0.58838300  0.00967400  1
  O  O16  1  0.58838300  0.05112600  0.00967400  1
  O  O17  1  0.55103000  0.98261400  0.45030900  1
  O  O18  1  0.01738600  0.55103000  0.45030900  1
  O  O19  1  0.44897000  0.01738600  0.45030900  1
  O  O20  1  0.98261400  0.44897000  0.45030900  1
  O  O21  1  0.55103000  0.01738600  0.54969100  1
  O  O22  1  0.01738600  0.44897000  0.54969100  1
  O  O23  1  0.44897000  0.98261400  0.54969100  1
  O  O24  1  0.98261400  0.55103000  0.54969100  1
  O  O25  1  0.05103000  0.48261400  0.95030900  1
  O  O26  1  0.51738600  0.05103000  0.95030900  1
  O  O27  1  0.94897000  0.51738600  0.95030900  1
  O  O28  1  0.48261400  0.94897000  0.95030900  1
  O  O29  1  0.05103000  0.51738600  0.04969100  1
  O  O30  1  0.51738600  0.94897000  0.04969100  1
  O  O31  1  0.94897000  0.48261400  0.04969100  1
  O  O32  1  0.48261400  0.05103000  0.04969100  1
  O  O33  1  0.58831900  0.48281700  0.52883600  1
  O  O34  1  0.51718300  0.58831900  0.52883600  1
  O  O35  1  0.41168100  0.51718300  0.52883600  1
  O  O36  1  0.48281700  0.41168100  0.52883600  1
  O  O37  1  0.58831900  0.51718300  0.47116400  1
  O  O38  1  0.51718300  0.41168100  0.47116400  1
  O  O39  1  0.41168100  0.48281700  0.47116400  1
  O  O40  1  0.48281700  0.58831900  0.47116400  1
  O  O41  1  0.08831900  0.98281700  0.02883600  1
  O  O42  1  0.01718300  0.08831900  0.02883600  1
  O  O43  1  0.91168100  0.01718300  0.02883600  1
  O  O44  1  0.98281700  0.91168100  0.02883600  1
  O  O45  1  0.08831900  0.01718300  0.97116400  1
  O  O46  1  0.01718300  0.91168100  0.97116400  1
  O  O47  1  0.91168100  0.98281700  0.97116400  1
  O  O48  1  0.98281700  0.08831900  0.97116400  1
