# generated using pymatgen
data_VH9C19ClO5
_symmetry_space_group_name_H-M   'P 1'
_cell_length_a   21.22820000
_cell_length_b   6.81800000
_cell_length_c   19.75140000
_cell_angle_alpha   90.00000000
_cell_angle_beta   102.39939500
_cell_angle_gamma   90.00000000
_symmetry_Int_Tables_number   1
_chemical_formula_structural   VH9C19ClO5
_chemical_formula_sum   'V4 H36 C76 Cl4 O20'
_cell_volume   2792.01611772
_cell_formula_units_Z   4
loop_
 _symmetry_equiv_pos_site_id
 _symmetry_equiv_pos_as_xyz
  1  'x, y, z'
loop_
 _atom_site_type_symbol
 _atom_site_label
 _atom_site_symmetry_multiplicity
 _atom_site_fract_x
 _atom_site_fract_y
 _atom_site_fract_z
 _atom_site_occupancy
  V  V1  1  0.74715600  0.78575100  0.23800400  1
  V  V2  1  0.25277200  0.22583500  0.76200700  1
  V  V3  1  0.75284400  0.28575200  0.26199600  1
  V  V4  1  0.24722800  0.72583500  0.73799300  1
  H  H1  1  0.08898900  0.73968300  0.56683800  1
  H  H2  1  0.91168900  0.27195000  0.43232600  1
  H  H3  1  0.41101100  0.23968400  0.93316200  1
  H  H4  1  0.58831100  0.77195100  0.06767400  1
  H  H5  1  0.08485100  0.34189700  0.62347800  1
  H  H6  1  0.91568200  0.66964700  0.37574900  1
  H  H7  1  0.41514900  0.84189500  0.87652200  1
  H  H8  1  0.58431800  0.16964600  0.12425100  1
  H  H9  1  0.01063900  0.61749300  0.46981700  1
  H  H10  1  0.99007000  0.39418400  0.52923200  1
  H  H11  1  0.48936100  0.11749300  0.03018300  1
  H  H12  1  0.50993000  0.89418300  0.97076800  1
  H  H13  1  0.54682500  0.82792400  0.60677500  1
  H  H14  1  0.45439900  0.18370600  0.39468500  1
  H  H15  1  0.95317500  0.32792400  0.89322500  1
  H  H16  1  0.04560100  0.68370600  0.10531500  1
  H  H17  1  0.51665100  0.66473500  0.47127600  1
  H  H18  1  0.48458100  0.34685900  0.53019800  1
  H  H19  1  0.98334900  0.16473500  0.02872400  1
  H  H20  1  0.01541900  0.84685800  0.96980200  1
  H  H21  1  0.69006000  0.38344500  0.71549600  1
  H  H22  1  0.77915000  0.40297200  0.65407400  1
  H  H23  1  0.76476800  0.27485600  0.53531500  1
  H  H24  1  0.66139300  0.12726100  0.47799300  1
  H  H25  1  0.31111500  0.62789400  0.28602500  1
  H  H26  1  0.22178000  0.61068800  0.34715700  1
  H  H27  1  0.23609400  0.73978900  0.46579900  1
  H  H28  1  0.33951900  0.88625600  0.52321600  1
  H  H29  1  0.80994000  0.88344500  0.78450400  1
  H  H30  1  0.72085000  0.90297200  0.84592600  1
  H  H31  1  0.73523200  0.77485600  0.96468500  1
  H  H32  1  0.83860700  0.62726100  0.02200600  1
  H  H33  1  0.18888500  0.12789400  0.21397600  1
  H  H34  1  0.27822000  0.11068800  0.15284300  1
  H  H35  1  0.26390600  0.23978900  0.03420100  1
  H  H36  1  0.16048100  0.38625600  0.97678400  1
  C  C1  1  0.82989500  0.50470200  0.17418900  1
  C  C2  1  0.16955200  0.50691000  0.82515500  1
  C  C3  1  0.67010500  0.00470300  0.32581100  1
  C  C4  1  0.33044800  0.00691000  0.67484500  1
  C  C5  1  0.65013500  0.50068300  0.15833500  1
  C  C6  1  0.34946800  0.51089600  0.84220700  1
  C  C7  1  0.84986500  0.00068300  0.34166600  1
  C  C8  1  0.15053300  0.01089700  0.65779400  1
  C  C9  1  0.09306400  0.03741300  0.60164700  1
  C  C10  1  0.90753500  0.97418800  0.39755700  1
  C  C11  1  0.40693600  0.53741300  0.89835300  1
  C  C12  1  0.59246500  0.47418700  0.10244300  1
  C  C13  1  0.98885500  0.76120700  0.46189900  1
  C  C14  1  0.01183200  0.25043600  0.53718600  1
  C  C15  1  0.51114500  0.26120700  0.03810100  1
  C  C16  1  0.48816700  0.75043600  0.96281400  1
  C  C17  1  0.93556800  0.79087200  0.40877300  1
  C  C18  1  0.06503600  0.22071700  0.59039700  1
  C  C19  1  0.56443200  0.29087200  0.09122800  1
  C  C20  1  0.43496400  0.72071800  0.90960300  1
  C  C21  1  0.93337100  0.12801400  0.44033800  1
  C  C22  1  0.06732900  0.88363900  0.55877400  1
  C  C23  1  0.56662800  0.62801300  0.05966200  1
  C  C24  1  0.43267100  0.38363800  0.94122600  1
  C  C25  1  0.98645600  0.09754400  0.49409100  1
  C  C26  1  0.01426400  0.91410400  0.50498400  1
  C  C27  1  0.51354400  0.59754400  0.00591000  1
  C  C28  1  0.48573600  0.41410400  0.99501700  1
  C  C29  1  0.55507700  0.08331000  0.53020900  1
  C  C30  1  0.44614400  0.92829800  0.47123700  1
  C  C31  1  0.94492400  0.58331100  0.96979100  1
  C  C32  1  0.05385600  0.42829700  0.02876300  1
  C  C33  1  0.52525300  0.90704900  0.55827400  1
  C  C34  1  0.47597000  0.10456100  0.44318000  1
  C  C35  1  0.97474700  0.40704800  0.94172600  1
  C  C36  1  0.02403000  0.60456100  0.05682000  1
  C  C37  1  0.37651100  0.01806000  0.62928300  1
  C  C38  1  0.62437300  0.99358500  0.37176000  1
  C  C39  1  0.12348800  0.51806100  0.87071700  1
  C  C40  1  0.87562700  0.49358600  0.12824000  1
  C  C41  1  0.49113400  0.19164500  0.51637000  1
  C  C42  1  0.51008800  0.81995300  0.48507800  1
  C  C43  1  0.00886600  0.69164500  0.98363000  1
  C  C44  1  0.98991200  0.31995200  0.01492200  1
  C  C45  1  0.46085700  0.01392700  0.54330800  1
  C  C46  1  0.54036700  0.99769100  0.45813400  1
  C  C47  1  0.03914300  0.51392800  0.95669300  1
  C  C48  1  0.95963300  0.49769000  0.04186500  1
  C  C49  1  0.41458500  0.01891200  0.59073500  1
  C  C50  1  0.58652200  0.99278200  0.41056300  1
  C  C51  1  0.08541500  0.51891400  0.90926500  1
  C  C52  1  0.91347800  0.49278400  0.08943700  1
  C  C53  1  0.61767700  0.17248600  0.56459500  1
  C  C54  1  0.62576100  0.24439700  0.63116600  1
  C  C55  1  0.68375300  0.32716700  0.66330600  1
  C  C56  1  0.73368300  0.33811300  0.62887500  1
  C  C57  1  0.72562000  0.26625600  0.56230700  1
  C  C58  1  0.66762800  0.18343300  0.53016100  1
  C  C59  1  0.38349000  0.83936000  0.43685100  1
  C  C60  1  0.37546500  0.76676800  0.37037800  1
  C  C61  1  0.31739000  0.68463500  0.33815500  1
  C  C62  1  0.26731900  0.67496400  0.37242000  1
  C  C63  1  0.27533400  0.74735800  0.43891100  1
  C  C64  1  0.33339700  0.82958300  0.47112600  1
  C  C65  1  0.88232200  0.67248600  0.93540500  1
  C  C66  1  0.87423900  0.74439700  0.86883400  1
  C  C67  1  0.81624700  0.82716700  0.83669400  1
  C  C68  1  0.76631600  0.83811300  0.87112400  1
  C  C69  1  0.77438000  0.76625600  0.93769300  1
  C  C70  1  0.83237200  0.68343300  0.96983900  1
  C  C71  1  0.11651000  0.33936100  0.06314900  1
  C  C72  1  0.12453500  0.26676800  0.12962200  1
  C  C73  1  0.18261000  0.18463500  0.16184500  1
  C  C74  1  0.23268100  0.17496400  0.12758000  1
  C  C75  1  0.22466600  0.24735800  0.06108900  1
  C  C76  1  0.16660300  0.32958300  0.02887400  1
  Cl  Cl1  1  0.56235800  0.23040300  0.67490800  1
  Cl  Cl2  1  0.43904600  0.77913300  0.32684800  1
  Cl  Cl3  1  0.93764100  0.73040300  0.82509200  1
  Cl  Cl4  1  0.06095400  0.27913300  0.17315200  1
  O  O1  1  0.67512800  0.33507300  0.18902600  1
  O  O2  1  0.32462600  0.67649800  0.81137900  1
  O  O3  1  0.82487200  0.83507300  0.31097400  1
  O  O4  1  0.17537400  0.17649900  0.68862000  1
  O  O5  1  0.80437500  0.68225300  0.17909500  1
  O  O6  1  0.19513500  0.32934400  0.82044900  1
  O  O7  1  0.69562400  0.18225400  0.32090500  1
  O  O8  1  0.30486400  0.82934500  0.67955100  1
  O  O9  1  0.67422200  0.68233000  0.16737200  1
  O  O10  1  0.32539300  0.32926200  0.83303000  1
  O  O11  1  0.82577700  0.18232900  0.33262800  1
  O  O12  1  0.17460700  0.82926100  0.66697100  1
  O  O13  1  0.68600500  0.83548100  0.29875200  1
  O  O14  1  0.31435400  0.17612700  0.70174600  1
  O  O15  1  0.81399500  0.33548100  0.20124800  1
  O  O16  1  0.18564600  0.67612700  0.79825400  1
  O  O17  1  0.75686200  0.51634100  0.29202000  1
  O  O18  1  0.24337400  0.49524100  0.70798400  1
  O  O19  1  0.74313800  0.01634100  0.20798000  1
  O  O20  1  0.25662600  0.99524000  0.79201600  1
