# Generated by REPEAT Assigner based on pymatgen
data_DB0-m2_o3_o11_f0_nbo.sym.15
_audit_creation_date              2022-05-24
_audit_creation_method            REPEAT_Assigner
_cell_length_a                    43.607024
_cell_length_b                    38.488201
_cell_length_c                    21.869286
_cell_angle_alpha                 90.000000
_cell_angle_beta                  61.529046
_cell_angle_gamma                 90.000000
_cell_volume                      32265.369309
_symmetry_space_group_name_H-M    P1
_symmetry_Int_Tables_number       1
loop_
    _symmetry_equiv_pos_site_id
    _symmetry_equiv_pos_as_xyz
    1  x,y,z
loop_
    _atom_site_type_symbol
    _atom_site_label
    _atom_site_fract_x
    _atom_site_fract_y
    _atom_site_fract_z
    _atom_type_partial_charge
    C   C1    0.066027  0.520673  0.444008  0.736171
    C   C2    0.998465  0.499421  0.218925  -0.297300
    C   C3    0.984702  0.485759  0.126977  0.599057
    C   C4    0.515297  0.985759  0.873025  0.598900
    C   C5    0.484702  0.985759  0.126977  0.599039
    C   C6    0.000000  0.551559  0.000001  0.642988
    C   C7    0.500000  0.051559  0.000000  0.642968
    C   C8    0.500000  0.420729  0.000001  0.601812
    C   C9    0.000000  0.920729  0.000001  0.601813
    C   C10   0.434029  0.487675  0.072675  0.752493
    C   C11   0.565970  0.487675  0.927326  0.752124
    C   C12   0.934029  0.987675  0.072675  0.752474
    C   C13   0.501534  0.999421  0.781076  -0.296993
    C   C14   0.065970  0.987675  0.927326  0.752117
    C   C15   0.500000  0.552247  0.000001  0.607127
    C   C16   -0.000000  0.052247  0.000001  0.607099
    C   C17   0.520873  0.608255  0.020690  -0.129740
    C   C18   0.479126  0.608255  0.979312  -0.129712
    C   C19   0.020873  0.108255  0.020690  -0.129748
    C   C20   0.979126  0.108255  0.979312  -0.129720
    C   C21   0.521185  0.644038  0.019840  -0.175810
    C   C22   0.478814  0.644038  0.980161  -0.176145
    C   C23   0.021185  0.144038  0.019840  -0.175804
    C   C24   0.498465  0.999421  0.218925  -0.297240
    C   C25   0.978814  0.144038  0.980161  -0.176136
    C   C26   0.500000  0.662060  0.000001  0.156343
    C   C27   0.000000  0.162060  0.000001  0.156338
    C   C28   0.500000  0.590221  0.000001  0.033724
    C   C29   -0.000000  0.090221  0.000001  0.033736
    C   C30   0.468895  0.718047  0.029046  -0.464767
    C   C31   0.531104  0.718047  0.970956  -0.465387
    C   C32   0.968895  0.218047  0.029046  -0.464765
    C   C33   0.031104  0.218047  0.970956  -0.465390
    C   C34   0.968796  0.253848  0.030557  0.499559
    C   C35   0.023763  0.485398  0.799751  0.239629
    C   C36   0.031203  0.253848  0.969444  0.500916
    C   C37   0.468796  0.753848  0.030557  0.499570
    C   C38   0.531203  0.753848  0.969444  0.500922
    C   C39   0.000000  0.271981  0.000001  -0.436858
    C   C40   0.500000  0.771981  0.000001  -0.436877
    C   C41   0.500000  0.700048  0.000001  0.182620
    C   C42   0.000000  0.200048  0.000001  0.182624
    C   C43   0.019624  0.328123  0.023662  -0.241987
    C   C44   0.980375  0.328123  0.976340  -0.242357
    C   C45   0.519624  0.828123  0.023662  -0.241994
    C   C46   0.976236  0.485398  0.200250  0.239333
    C   C47   0.480375  0.828123  0.976340  -0.242368
    C   C48   0.019951  0.363894  0.022942  -0.067075
    C   C49   0.980048  0.363894  0.977060  -0.067092
    C   C50   0.519951  0.863894  0.022942  -0.067079
    C   C51   0.480048  0.863894  0.977060  -0.067089
    C   C52   0.000000  0.381930  0.000001  -0.112453
    C   C53   0.500000  0.881930  0.000001  -0.112466
    C   C54   0.000000  0.310055  0.000001  0.510988
    C   C55   0.500000  0.810055  0.000001  0.511012
    C   C56   0.528805  0.364665  0.951605  0.459736
    C   C57   0.523763  0.985398  0.799751  0.239579
    C   C58   0.471194  0.364665  0.048396  0.459587
    C   C59   0.028805  0.864665  0.951605  0.459714
    C   C60   0.971194  0.864665  0.048396  0.459584
    C   C61   0.528988  0.328774  0.952680  -0.494228
    C   C62   0.471011  0.328774  0.047321  -0.494147
    C   C63   0.028988  0.828774  0.952680  -0.494203
    C   C64   0.971011  0.828774  0.047321  -0.494143
    C   C65   0.500000  0.310540  0.000000  0.207113
    C   C66   0.000000  0.810540  0.000000  0.207107
    C   C67   0.500000  0.382702  0.000001  -0.250087
    C   C68   0.476236  0.985398  0.200250  0.239335
    C   C69   0.000000  0.882702  0.000001  -0.250077
    C   C70   0.470029  0.253954  0.013834  -0.160115
    C   C71   0.529970  0.253954  0.986166  -0.160074
    C   C72   0.970029  0.753954  0.013834  -0.160117
    C   C73   0.029970  0.753954  0.986166  -0.160115
    C   C74   0.970020  0.718130  0.014200  -0.264876
    C   C75   0.029979  0.718130  0.985801  -0.264910
    C   C76   0.470020  0.218130  0.014200  -0.264837
    C   C77   0.529979  0.218130  0.985800  -0.264929
    C   C78   0.000000  0.700086  0.000000  0.563394
    C   C79   0.007799  0.497956  0.709290  0.180123
    C   C80   0.500000  0.200086  0.000000  0.563378
    C   C81   0.500000  0.272232  0.000000  0.101145
    C   C82   0.000000  0.772232  0.000000  0.101162
    C   C83   0.022396  0.644059  0.940792  0.107013
    C   C84   0.977603  0.644059  0.059209  0.106657
    C   C85   0.522396  0.144059  0.940792  0.107052
    C   C86   0.477603  0.144059  0.059209  0.106804
    C   C87   0.023745  0.608124  0.941604  0.078685
    C   C88   0.976254  0.608124  0.058397  0.079022
    C   C89   0.523745  0.108124  0.941604  0.078705
    C   C90   0.992200  0.497956  0.290711  0.180131
    C   C91   0.476254  0.108124  0.058397  0.078776
    C   C92   0.000000  0.589868  0.000000  -0.069648
    C   C93   0.500000  0.089868  0.000000  -0.069592
    C   C94   0.000000  0.662034  0.000000  -0.218096
    C   C95   0.500000  0.162034  0.000000  -0.218160
    C   C96   0.284448  0.558123  0.123342  0.468137
    C   C97   0.315875  0.572186  0.059744  -0.307282
    C   C98   0.715552  0.558123  0.876660  0.467983
    C   C99   0.684125  0.572186  0.940258  -0.306975
    C   C100  0.784448  0.058123  0.123342  0.468142
    C   C101  0.507799  0.997956  0.709290  0.180110
    C   C102  0.815875  0.072186  0.059744  -0.307282
    C   C103  0.215552  0.058123  0.876660  0.467974
    C   C104  0.184125  0.072186  0.940258  -0.306993
    C   C105  0.175773  0.463327  0.241033  0.414614
    C   C106  0.211690  0.452860  0.184716  -0.285744
    C   C107  0.824226  0.463327  0.758968  0.414322
    C   C108  0.788309  0.452860  0.815285  -0.285644
    C   C109  0.675773  0.963327  0.241033  0.414609
    C   C110  0.711690  0.952860  0.184716  -0.285747
    C   C111  0.324226  0.963327  0.758968  0.414317
    C   C112  0.933972  0.520673  0.555993  0.736506
    C   C113  0.492200  0.997956  0.290710  0.180101
    C   C114  0.288309  0.952860  0.815285  -0.285640
    C   C115  0.079854  0.495599  0.733321  0.470165
    C   C116  0.102457  0.496606  0.655081  -0.303466
    C   C117  0.920145  0.495599  0.266680  0.470846
    C   C118  0.897543  0.496606  0.344920  -0.304003
    C   C119  0.579854  0.995599  0.733321  0.470165
    C   C120  0.602457  0.996606  0.655081  -0.303744
    C   C121  0.420145  0.995599  0.266680  0.470824
    C   C122  0.397543  0.996606  0.344920  -0.304257
    C   C123  0.928508  0.271513  0.133350  0.429026
    C   C124  0.991821  0.521043  0.689181  -0.468727
    C   C125  0.914122  0.306926  0.163499  -0.326050
    C   C126  0.071492  0.271513  0.866652  0.429064
    C   C127  0.085878  0.306926  0.836502  -0.325581
    C   C128  0.428508  0.771513  0.133350  0.429024
    C   C129  0.414122  0.806926  0.163499  -0.326053
    C   C130  0.571492  0.771513  0.866652  0.429063
    C   C131  0.585878  0.806926  0.836502  -0.325583
    C   C132  0.559797  0.379642  0.841256  0.429766
    C   C133  0.581547  0.409235  0.795475  -0.315156
    C   C134  0.440203  0.379642  0.158745  0.429374
    C   C135  0.008178  0.521043  0.310820  -0.468815
    C   C136  0.418453  0.409235  0.204526  -0.314595
    C   C137  0.059797  0.879642  0.841256  0.429762
    C   C138  0.081547  0.909235  0.795475  -0.315177
    C   C139  0.940203  0.879642  0.158745  0.429374
    C   C140  0.918453  0.909235  0.204526  -0.314600
    C   C141  0.025506  0.662597  0.842699  0.425938
    C   C142  0.029180  0.698215  0.810554  -0.379233
    C   C143  0.974494  0.662597  0.157302  0.425708
    C   C144  0.970819  0.698215  0.189447  -0.379378
    C   C145  0.525506  0.162597  0.842699  0.425944
    C   C146  0.491821  0.021043  0.689181  -0.468682
    C   C147  0.529180  0.198215  0.810554  -0.379225
    C   C148  0.474494  0.162597  0.157302  0.425678
    C   C149  0.470819  0.198215  0.189447  -0.379349
    C   C150  0.079016  0.592499  0.879626  0.500590
    C   C151  0.102510  0.564573  0.831106  -0.397863
    C   C152  0.920983  0.592499  0.120374  0.501275
    C   C153  0.897489  0.564573  0.168895  -0.397906
    C   C154  0.579016  0.092499  0.879626  0.500590
    C   C155  0.602510  0.064573  0.831106  -0.397801
    C   C156  0.420983  0.092499  0.120374  0.500635
    C   C157  0.508178  0.021043  0.310820  -0.468783
    C   C158  0.397489  0.064573  0.168895  -0.397788
    C   C159  0.386352  0.500033  0.979457  0.452085
    C   C160  0.411531  0.492734  0.903755  -0.401893
    C   C161  0.613648  0.500033  0.020544  0.451640
    C   C162  0.588468  0.492735  0.096247  -0.401660
    C   C163  0.886352  0.000033  0.979457  0.452043
    C   C164  0.911531  0.992734  0.903755  -0.401877
    C   C165  0.113648  0.000033  0.020544  0.451551
    C   C166  0.088468  0.992735  0.096247  -0.401663
    C   C167  0.279567  0.427268  0.255084  0.471589
    C   C168  0.373578  0.484681  0.086038  0.372313
    C   C169  0.311824  0.404590  0.225951  -0.471355
    C   C170  0.720432  0.427268  0.744917  0.471378
    C   C171  0.688175  0.404590  0.774051  -0.471284
    C   C172  0.779567  0.927268  0.255084  0.471607
    C   C173  0.811824  0.904590  0.225951  -0.471360
    C   C174  0.220432  0.927268  0.744917  0.471396
    C   C175  0.188175  0.904590  0.774051  -0.471299
    C   C176  0.626421  0.484681  0.913963  0.372192
    C   C177  0.873578  0.984681  0.086038  0.372256
    C   C178  0.126421  0.984681  0.913963  0.371950
    C   C179  0.338078  0.489801  0.126243  -0.356159
    C   C180  0.566027  0.020673  0.444008  0.736121
    C   C181  0.661922  0.489801  0.873759  -0.356178
    C   C182  0.838078  0.989801  0.126243  -0.356103
    C   C183  0.161922  0.989801  0.873759  -0.355984
    C   C184  0.324424  0.502434  0.193074  0.408758
    C   C185  0.675576  0.502434  0.806927  0.408824
    C   C186  0.824424  0.002434  0.193074  0.408700
    C   C187  0.175576  0.002434  0.806927  0.408725
    C   C188  0.346211  0.508736  0.221057  -0.342315
    C   C189  0.653788  0.508736  0.778944  -0.342292
    C   C190  0.846211  0.008736  0.221057  -0.342283
    C   C191  0.433972  0.020673  0.555993  0.736463
    C   C192  0.153788  0.008736  0.778944  -0.342238
    C   C193  0.381622  0.503333  0.181816  -0.027476
    C   C194  0.618377  0.503333  0.818186  -0.027833
    C   C195  0.881622  0.003333  0.181816  -0.027506
    C   C196  0.118377  0.003333  0.818186  -0.027864
    C   C197  0.395801  0.491426  0.113896  -0.239789
    C   C198  0.604198  0.491426  0.886106  -0.239423
    C   C199  0.895801  0.991426  0.113896  -0.239740
    C   C200  0.104198  0.991426  0.886106  -0.239333
    C   C201  0.267202  0.482280  0.283542  0.539083
    C   C202  0.995879  0.520863  0.619135  0.838063
    C   C203  0.732797  0.482280  0.716460  0.539175
    C   C204  0.767202  0.982280  0.283542  0.539060
    C   C205  0.232797  0.982280  0.716460  0.539163
    C   C206  0.231492  0.485905  0.321850  -0.557490
    C   C207  0.768507  0.485905  0.678151  -0.557594
    C   C208  0.731492  0.985905  0.321850  -0.557469
    C   C209  0.268507  0.985905  0.678151  -0.557572
    C   C210  0.214968  0.514218  0.311624  0.328847
    C   C211  0.785032  0.514218  0.688378  0.328618
    C   C212  0.714968  0.014218  0.311624  0.328808
    C   C213  0.004120  0.520863  0.380867  0.838043
    C   C214  0.285032  0.014218  0.688378  0.328580
    C   C215  0.234685  0.539807  0.265313  -0.533366
    C   C216  0.765314  0.539807  0.734688  -0.533315
    C   C217  0.734685  0.039807  0.265313  -0.533335
    C   C218  0.265314  0.039807  0.734688  -0.533286
    C   C219  0.270445  0.536119  0.226327  0.468077
    C   C220  0.729554  0.536119  0.773675  0.468075
    C   C221  0.770445  0.036119  0.226327  0.468056
    C   C222  0.229554  0.036119  0.773675  0.468053
    C   C223  0.286738  0.507201  0.235224  -0.341513
    C   C224  0.495879  0.020863  0.619135  0.837993
    C   C225  0.713261  0.507201  0.764777  -0.341542
    C   C226  0.786738  0.007201  0.235224  -0.341477
    C   C227  0.213261  0.007201  0.764777  -0.341515
    C   C228  0.157552  0.488332  0.343052  0.436691
    C   C229  0.842447  0.488332  0.656949  0.436449
    C   C230  0.657552  0.988332  0.343052  0.436652
    C   C231  0.342447  0.988332  0.656949  0.436410
    C   C232  0.121665  0.489966  0.375777  -0.331460
    C   C233  0.878334  0.489966  0.624224  -0.331537
    C   C234  0.621665  0.989966  0.375777  -0.331428
    C   C235  0.504120  0.020863  0.380867  0.837965
    C   C236  0.378334  0.989966  0.624224  -0.331508
    C   C237  0.104323  0.519681  0.410776  -0.034529
    C   C238  0.895676  0.519681  0.589225  -0.034554
    C   C239  0.604323  0.019681  0.410776  -0.034522
    C   C240  0.395676  0.019681  0.589225  -0.034551
    C   C241  0.123476  0.547844  0.412926  -0.108573
    C   C242  0.876524  0.547844  0.587075  -0.108587
    C   C243  0.623476  0.047844  0.412926  -0.108569
    C   C244  0.376524  0.047844  0.587075  -0.108581
    C   C245  0.159506  0.546064  0.380855  -0.221470
    C   C246  0.001534  0.499421  0.781076  -0.297023
    C   C247  0.840493  0.546064  0.619146  -0.221622
    C   C248  0.659506  0.046064  0.380855  -0.221481
    C   C249  0.340493  0.046064  0.619146  -0.221631
    C   C250  0.176711  0.516139  0.346671  -0.010492
    C   C251  0.823288  0.516139  0.653330  -0.010137
    C   C252  0.676711  0.016139  0.346671  -0.010461
    C   C253  0.323288  0.016139  0.653330  -0.010105
    C   C254  0.000000  0.419909  0.000001  0.698471
    C   C255  0.500000  0.919909  0.000001  0.698506
    C   C256  0.015297  0.485759  0.873025  0.598847
    Cu  Cu1   0.000000  0.554674  0.500001  1.005029
    Cu  Cu2   0.496886  0.486505  0.943676  0.930449
    Cu  Cu3   0.003114  0.986505  0.056326  0.930194
    Cu  Cu4   0.996886  0.986505  0.943675  0.930519
    Cu  Cu5   0.500000  0.054674  0.500001  1.005007
    Cu  Cu6   0.000000  0.486953  0.500001  0.959579
    Cu  Cu7   0.500000  0.986953  0.500001  0.959548
    Cu  Cu8   0.966931  0.485633  0.017779  0.913740
    Cu  Cu9   0.033069  0.485633  0.982223  0.913588
    Cu  Cu10  0.466931  0.985633  0.017779  0.913748
    Cu  Cu11  0.533069  0.985633  0.982223  0.913593
    Cu  Cu12  0.503114  0.486505  0.056326  0.930220
    H   H1    0.978534  0.513041  0.818827  0.173360
    H   H2    0.024016  0.541176  0.275029  0.203472
    H   H3    0.212394  0.453901  0.133398  0.056868
    H   H4    0.231474  0.470983  0.184592  0.072016
    H   H5    0.828971  0.490827  0.767111  -0.075213
    H   H6    0.844150  0.446640  0.762148  -0.021083
    H   H7    0.782451  0.426062  0.805321  0.074873
    H   H8    0.787606  0.453901  0.866603  0.056850
    H   H9    0.768525  0.470983  0.815409  0.072208
    H   H10   0.671028  0.990827  0.232890  -0.075316
    H   H11   0.655849  0.946641  0.237853  -0.021076
    H   H12   0.717548  0.926062  0.194680  0.074863
    H   H13   0.475983  0.041176  0.724973  0.203479
    H   H14   0.712394  0.953901  0.133398  0.056869
    H   H15   0.731474  0.970983  0.184592  0.072019
    H   H16   0.328971  0.990827  0.767111  -0.075212
    H   H17   0.344150  0.946640  0.762148  -0.021083
    H   H18   0.282451  0.926062  0.805321  0.074873
    H   H19   0.287606  0.953901  0.866603  0.056848
    H   H20   0.268525  0.970983  0.815409  0.072210
    H   H21   0.096325  0.489263  0.757824  -0.039922
    H   H22   0.067764  0.521490  0.751593  -0.051215
    H   H23   0.086460  0.504243  0.630252  0.078765
    H   H24   0.524016  0.041176  0.275029  0.203462
    H   H25   0.123675  0.515836  0.641424  0.050384
    H   H26   0.113911  0.470547  0.636173  0.085609
    H   H27   0.903674  0.489263  0.242177  -0.039980
    H   H28   0.932235  0.521490  0.248408  -0.051195
    H   H29   0.913539  0.504244  0.369749  0.078996
    H   H30   0.876324  0.515836  0.358577  0.050497
    H   H31   0.886088  0.470547  0.363829  0.085736
    H   H32   0.596325  0.989263  0.757824  -0.039901
    H   H33   0.567764  0.021490  0.751593  -0.051180
    H   H34   0.586460  0.004243  0.630252  0.078830
    H   H35   0.320726  0.483508  0.105415  0.171272
    H   H36   0.623675  0.015836  0.641424  0.050466
    H   H37   0.613911  0.970547  0.636173  0.085683
    H   H38   0.403674  0.989263  0.242177  -0.039956
    H   H39   0.432235  0.021490  0.248408  -0.051168
    H   H40   0.413539  0.004244  0.369749  0.079060
    H   H41   0.376324  0.015836  0.358577  0.050568
    H   H42   0.386088  0.970547  0.363829  0.085809
    H   H43   0.951681  0.266155  0.140179  -0.065188
    H   H44   0.908354  0.251437  0.161158  -0.040070
    H   H45   0.891311  0.312802  0.155767  0.098007
    H   H46   0.679274  0.483508  0.894586  0.171283
    H   H47   0.905983  0.306988  0.219887  0.069914
    H   H48   0.934522  0.326944  0.136987  0.065826
    H   H49   0.048318  0.266155  0.859822  -0.065458
    H   H50   0.091646  0.251436  0.838844  -0.040073
    H   H51   0.108689  0.312801  0.844234  0.097913
    H   H52   0.094016  0.306988  0.780114  0.069772
    H   H53   0.065478  0.326944  0.863015  0.065432
    H   H54   0.451681  0.766155  0.140179  -0.065188
    H   H55   0.408354  0.751437  0.161158  -0.040069
    H   H56   0.391311  0.812802  0.155767  0.098007
    H   H57   0.820726  0.983508  0.105415  0.171259
    H   H58   0.405983  0.806988  0.219887  0.069916
    H   H59   0.434522  0.826944  0.136987  0.065828
    H   H60   0.548318  0.766155  0.859822  -0.065459
    H   H61   0.591646  0.751436  0.838844  -0.040073
    H   H62   0.608689  0.812801  0.844234  0.097913
    H   H63   0.594016  0.806988  0.780114  0.069773
    H   H64   0.565478  0.826944  0.863015  0.065433
    H   H65   0.533145  0.381065  0.847016  -0.065662
    H   H66   0.572228  0.354734  0.816241  -0.054688
    H   H67   0.607934  0.408447  0.791130  0.089320
    H   H68   0.179274  0.983508  0.894586  0.171246
    H   H69   0.583764  0.406588  0.743033  0.056286
    H   H70   0.568971  0.434362  0.818531  0.102375
    H   H71   0.466854  0.381064  0.152985  -0.065624
    H   H72   0.427771  0.354734  0.183760  -0.054571
    H   H73   0.392065  0.408447  0.208871  0.089233
    H   H74   0.416235  0.406588  0.256968  0.056258
    H   H75   0.431028  0.434362  0.181470  0.102055
    H   H76   0.033145  0.881065  0.847016  -0.065658
    H   H77   0.072228  0.854734  0.816241  -0.054683
    H   H78   0.107934  0.908447  0.791130  0.089325
    H   H79   0.335552  0.518035  0.273912  0.161432
    H   H80   0.083764  0.906588  0.743033  0.056291
    H   H81   0.068971  0.934362  0.818531  0.102386
    H   H82   0.966854  0.881064  0.152985  -0.065625
    H   H83   0.927771  0.854734  0.183760  -0.054571
    H   H84   0.892065  0.908447  0.208871  0.089234
    H   H85   0.916235  0.906588  0.256968  0.056260
    H   H86   0.931028  0.934362  0.181470  0.102059
    H   H87   0.997439  0.657005  0.876727  -0.048823
    H   H88   0.036672  0.642814  0.800849  -0.024157
    H   H89   0.057210  0.704069  0.776791  0.103294
    H   H90   0.664447  0.518035  0.726089  0.161374
    H   H91   0.015429  0.698628  0.779025  0.083727
    H   H92   0.017625  0.718058  0.852194  0.068051
    H   H93   0.002560  0.657005  0.123273  -0.048951
    H   H94   0.963327  0.642814  0.199152  -0.024031
    H   H95   0.942789  0.704069  0.223209  0.103456
    H   H96   0.984570  0.698628  0.220976  0.083766
    H   H97   0.982374  0.718058  0.147807  0.068007
    H   H98   0.497439  0.157005  0.876727  -0.048843
    H   H99   0.536672  0.142814  0.800849  -0.024163
    H   H100  0.557210  0.204069  0.776791  0.103287
    H   H101  0.835552  0.018035  0.273912  0.161425
    H   H102  0.515429  0.198628  0.779025  0.083719
    H   H103  0.517625  0.218058  0.852194  0.068068
    H   H104  0.502560  0.157005  0.123273  -0.048951
    H   H105  0.463327  0.142814  0.199152  -0.024016
    H   H106  0.442789  0.204069  0.223209  0.103457
    H   H107  0.484570  0.198628  0.220976  0.083761
    H   H108  0.482374  0.218058  0.147807  0.067975
    H   H109  0.076164  0.588466  0.932291  -0.065498
    H   H110  0.091340  0.618070  0.859306  -0.051231
    H   H111  0.105519  0.568730  0.778350  0.103647
    H   H112  0.021466  0.513042  0.181177  0.173413
    H   H113  0.164447  0.018035  0.726089  0.161365
    H   H114  0.128453  0.565977  0.828734  0.083652
    H   H115  0.090947  0.538606  0.850305  0.088617
    H   H116  0.923836  0.588465  0.067709  -0.065755
    H   H117  0.908659  0.618070  0.140695  -0.051316
    H   H118  0.894481  0.568730  0.221651  0.103580
    H   H119  0.871546  0.565977  0.171267  0.083798
    H   H120  0.909052  0.538606  0.149696  0.088500
    H   H121  0.576164  0.088466  0.932291  -0.065505
    H   H122  0.591340  0.118070  0.859306  -0.051258
    H   H123  0.605519  0.068730  0.778350  0.103618
    H   H124  0.397981  0.508797  0.205305  0.121748
    H   H125  0.628453  0.065977  0.828734  0.083655
    H   H126  0.590947  0.038606  0.850305  0.088590
    H   H127  0.423836  0.088465  0.067709  -0.065481
    H   H128  0.408659  0.118070  0.140695  -0.051166
    H   H129  0.394481  0.068730  0.221651  0.103600
    H   H130  0.371546  0.065977  0.171267  0.083789
    H   H131  0.409052  0.038606  0.149696  0.088479
    H   H132  0.394879  0.523812  0.995780  -0.014904
    H   H133  0.359961  0.503964  0.984972  -0.032375
    H   H134  0.403633  0.468532  0.887490  0.115076
    H   H135  0.602018  0.508797  0.794696  0.121874
    H   H136  0.411055  0.514708  0.871423  0.078429
    H   H137  0.438301  0.489677  0.896683  0.093790
    H   H138  0.605121  0.523812  0.004222  -0.014919
    H   H139  0.640038  0.503965  0.015030  -0.032282
    H   H140  0.596366  0.468533  0.112511  0.114943
    H   H141  0.588944  0.514708  0.128579  0.078565
    H   H142  0.561698  0.489676  0.103319  0.093876
    H   H143  0.894879  0.023812  0.995780  -0.014898
    H   H144  0.859961  0.003964  0.984972  -0.032365
    H   H145  0.903633  0.968532  0.887490  0.115078
    H   H146  0.897981  0.008797  0.205305  0.121753
    H   H147  0.911055  0.014708  0.871423  0.078424
    H   H148  0.938301  0.989677  0.896683  0.093786
    H   H149  0.105121  0.023812  0.004222  -0.014884
    H   H150  0.140038  0.003965  0.015030  -0.032259
    H   H151  0.096366  0.968533  0.112511  0.114948
    H   H152  0.088944  0.014708  0.128579  0.078567
    H   H153  0.061698  0.989676  0.103319  0.093880
    H   H154  0.276463  0.438046  0.211350  -0.073934
    H   H155  0.256360  0.411400  0.288843  -0.018620
    H   H156  0.315016  0.393462  0.269348  0.126602
    H   H157  0.102018  0.008797  0.794696  0.121875
    H   H158  0.309042  0.383275  0.194839  0.092405
    H   H159  0.335083  0.420417  0.192352  0.145339
    H   H160  0.723537  0.438046  0.788651  -0.073791
    H   H161  0.743639  0.411400  0.711158  -0.018663
    H   H162  0.684983  0.393462  0.730653  0.126571
    H   H163  0.690957  0.383275  0.805162  0.092420
    H   H164  0.664916  0.420417  0.807649  0.145434
    H   H165  0.776463  0.938046  0.211350  -0.073939
    H   H166  0.756360  0.911400  0.288843  -0.018626
    H   H167  0.815016  0.893462  0.269348  0.126602
    H   H168  0.216449  0.466201  0.359491  0.196459
    H   H169  0.809042  0.883275  0.194839  0.092406
    H   H170  0.835083  0.920417  0.192352  0.145339
    H   H171  0.223537  0.938046  0.788651  -0.073802
    H   H172  0.243639  0.911400  0.711158  -0.018667
    H   H173  0.184983  0.893462  0.730653  0.126573
    H   H174  0.190957  0.883275  0.805162  0.092423
    H   H175  0.164916  0.920417  0.807649  0.145442
    H   H176  0.783550  0.466201  0.640510  0.196467
    H   H177  0.716449  0.966201  0.359491  0.196458
    H   H178  0.283550  0.966201  0.640510  0.196465
    H   H179  0.222011  0.562240  0.257616  0.198571
    H   H180  0.478534  0.013041  0.818827  0.173341
    H   H181  0.777989  0.562240  0.742386  0.198619
    H   H182  0.722011  0.062240  0.257616  0.198562
    H   H183  0.277989  0.062240  0.742386  0.198610
    H   H184  0.107551  0.467644  0.372337  0.162871
    H   H185  0.892448  0.467644  0.627664  0.162782
    H   H186  0.607551  0.967644  0.372337  0.162860
    H   H187  0.392448  0.967644  0.627664  0.162775
    H   H188  0.110579  0.571403  0.439710  0.131630
    H   H189  0.889420  0.571403  0.560291  0.131637
    H   H190  0.610579  0.071403  0.439710  0.131627
    H   H191  0.521466  0.013042  0.181177  0.173400
    H   H192  0.389420  0.071403  0.560291  0.131634
    H   H193  0.174149  0.568141  0.383492  0.146989
    H   H194  0.825850  0.568141  0.616509  0.147011
    H   H195  0.674149  0.068141  0.383492  0.146990
    H   H196  0.325850  0.068141  0.616509  0.147011
    H   H197  0.537530  0.594650  0.036730  0.135694
    H   H198  0.462469  0.594650  0.963271  0.135900
    H   H199  0.037530  0.094650  0.036730  0.135694
    H   H200  0.962469  0.094650  0.963271  0.135905
    H   H201  0.537580  0.657804  0.036343  0.127880
    H   H202  0.025319  0.478804  0.673255  0.111123
    H   H203  0.462419  0.657804  0.963659  0.127781
    H   H204  0.037580  0.157804  0.036343  0.127878
    H   H205  0.962419  0.157804  0.963659  0.127777
    H   H206  0.444366  0.704204  0.053088  0.167941
    H   H207  0.555633  0.704204  0.946914  0.167689
    H   H208  0.944366  0.204204  0.053088  0.167941
    H   H209  0.055633  0.204204  0.946914  0.167689
    H   H210  0.034620  0.314358  0.043525  0.109466
    H   H211  0.965379  0.314358  0.956477  0.109616
    H   H212  0.534620  0.814358  0.043525  0.109466
    H   H213  0.974681  0.478805  0.326750  0.111227
    H   H214  0.465379  0.814358  0.956477  0.109615
    H   H215  0.035431  0.377490  0.041874  0.126666
    H   H216  0.964568  0.377490  0.958128  0.126671
    H   H217  0.535431  0.877490  0.041874  0.126670
    H   H218  0.464568  0.877490  0.958128  0.126675
    H   H219  0.551875  0.315133  0.915028  0.190227
    H   H220  0.448125  0.315133  0.084973  0.190275
    H   H221  0.051875  0.815133  0.915028  0.190209
    H   H222  0.948125  0.815133  0.084973  0.190269
    H   H223  0.446456  0.267353  0.022992  0.137164
    H   H224  0.525319  0.978804  0.673255  0.111124
    H   H225  0.553543  0.267353  0.977009  0.137051
    H   H226  0.946456  0.767353  0.022992  0.137168
    H   H227  0.053543  0.767353  0.977009  0.137067
    H   H228  0.946529  0.704213  0.024396  0.114370
    H   H229  0.053470  0.704213  0.975605  0.114282
    H   H230  0.446529  0.204213  0.024396  0.114348
    H   H231  0.553470  0.204213  0.975605  0.114269
    H   H232  0.261022  0.573000  0.131483  -0.044898
    H   H233  0.280899  0.530333  0.114975  -0.092737
    H   H234  0.339836  0.559993  0.055398  0.027699
    H   H235  0.474681  0.978805  0.326751  0.111223
    H   H236  0.313439  0.566298  0.012610  0.059305
    H   H237  0.317397  0.600702  0.064984  0.097226
    H   H238  0.738978  0.573000  0.868518  -0.044842
    H   H239  0.719101  0.530333  0.885027  -0.092651
    H   H240  0.660163  0.559993  0.944604  0.027710
    H   H241  0.686560  0.566298  0.987391  0.059370
    H   H242  0.682602  0.600702  0.935017  0.097111
    H   H243  0.761022  0.073000  0.131483  -0.044901
    H   H244  0.780899  0.030333  0.114975  -0.092738
    H   H245  0.839836  0.059993  0.055398  0.027697
    H   H246  0.975983  0.541176  0.724973  0.203491
    H   H247  0.813439  0.066298  0.012610  0.059305
    H   H248  0.817397  0.100702  0.064984  0.097226
    H   H249  0.238978  0.073000  0.868518  -0.044837
    H   H250  0.219101  0.030333  0.885027  -0.092650
    H   H251  0.160163  0.059993  0.944604  0.027714
    H   H252  0.186560  0.066298  0.987391  0.059374
    H   H253  0.182602  0.100702  0.935017  0.097116
    H   H254  0.171028  0.490827  0.232890  -0.075318
    H   H255  0.155849  0.446641  0.237853  -0.021077
    H   H256  0.217548  0.426062  0.194680  0.074863
    O   O1    0.049050  0.549318  0.476121  -0.647436
    O   O2    0.013060  0.549378  0.401826  -0.631699
    O   O3    0.486940  0.049378  0.598175  -0.631658
    O   O4    0.513060  0.049378  0.401826  -0.631673
    O   O5    0.007065  0.492280  0.581261  -0.653340
    O   O6    0.992934  0.492280  0.418740  -0.653391
    O   O7    0.507065  0.992280  0.581261  -0.653301
    O   O8    0.492934  0.992280  0.418740  -0.653354
    O   O9    0.974430  0.436176  0.995546  -0.583363
    O   O10   0.025570  0.436176  0.004455  -0.583402
    O   O11   0.474430  0.936176  0.995546  -0.583391
    O   O12   0.950949  0.549318  0.523880  -0.647513
    O   O13   0.525570  0.936176  0.004455  -0.583406
    O   O14   0.983656  0.495703  0.919445  -0.616902
    O   O15   0.016344  0.495704  0.080556  -0.616878
    O   O16   0.483656  0.995703  0.919445  -0.616904
    O   O17   0.516344  0.995704  0.080556  -0.616894
    O   O18   0.039393  0.475558  0.889379  -0.554470
    O   O19   0.960606  0.475558  0.110622  -0.554255
    O   O20   0.539393  0.975558  0.889379  -0.554498
    O   O21   0.460606  0.975558  0.110622  -0.554246
    O   O22   0.969911  0.535087  0.034353  -0.502859
    O   O23   0.549050  0.049318  0.476121  -0.647412
    O   O24   0.030089  0.535087  0.965648  -0.502741
    O   O25   0.469911  0.035087  0.034353  -0.502874
    O   O26   0.530089  0.035087  0.965648  -0.502723
    O   O27   0.492628  0.437028  0.058596  -0.532332
    O   O28   0.507372  0.437028  0.941405  -0.532571
    O   O29   0.992628  0.937028  0.058596  -0.532337
    O   O30   0.007372  0.937028  0.941405  -0.532589
    O   O31   0.453175  0.496593  0.102314  -0.608146
    O   O32   0.546824  0.496593  0.897687  -0.608355
    O   O33   0.953175  0.996593  0.102314  -0.608143
    O   O34   0.450949  0.049318  0.523880  -0.647497
    O   O35   0.046824  0.996593  0.897687  -0.608372
    O   O36   0.447858  0.476710  0.007572  -0.532701
    O   O37   0.552141  0.476710  0.992429  -0.532347
    O   O38   0.947858  0.976710  0.007572  -0.532720
    O   O39   0.052141  0.976710  0.992429  -0.532352
    O   O40   0.512635  0.535971  0.036353  -0.602914
    O   O41   0.487364  0.535971  0.963648  -0.603265
    O   O42   0.012635  0.035971  0.036353  -0.602895
    O   O43   0.987364  0.035971  0.963648  -0.603259
    O   O44   0.289806  0.561799  0.181083  -0.442832
    O   O45   0.050136  0.492275  0.439937  -0.581335
    O   O46   0.710194  0.561799  0.818918  -0.442995
    O   O47   0.789806  0.061799  0.181083  -0.442826
    O   O48   0.210194  0.061799  0.818918  -0.442984
    O   O49   0.173942  0.459155  0.306160  -0.446849
    O   O50   0.826057  0.459155  0.693841  -0.446679
    O   O51   0.673942  0.959155  0.306160  -0.446835
    O   O52   0.326057  0.959155  0.693841  -0.446667
    O   O53   0.054077  0.470192  0.751039  -0.406887
    O   O54   0.945922  0.470192  0.248962  -0.407027
    O   O55   0.554077  0.970192  0.751039  -0.406862
    O   O56   0.949863  0.492275  0.560064  -0.581250
    O   O57   0.445922  0.970192  0.248962  -0.407011
    O   O58   0.937655  0.271145  0.062835  -0.430665
    O   O59   0.062344  0.271145  0.937166  -0.431095
    O   O60   0.437655  0.771145  0.062835  -0.430667
    O   O61   0.562344  0.771145  0.937166  -0.431096
    O   O62   0.558271  0.382273  0.906378  -0.403264
    O   O63   0.441728  0.382273  0.093623  -0.403073
    O   O64   0.058271  0.882273  0.906378  -0.403249
    O   O65   0.941728  0.882273  0.093623  -0.403068
    O   O66   0.043465  0.661937  0.881205  -0.335933
    O   O67   0.550136  0.992275  0.439937  -0.581299
    O   O68   0.956534  0.661937  0.118796  -0.335509
    O   O69   0.543465  0.161937  0.881205  -0.335887
    O   O70   0.456534  0.161937  0.118796  -0.335520
    O   O71   0.046351  0.590827  0.882220  -0.362189
    O   O72   0.953648  0.590827  0.117781  -0.362524
    O   O73   0.546351  0.090827  0.882220  -0.362195
    O   O74   0.453648  0.090827  0.117781  -0.362307
    O   O75   0.385972  0.471820  0.020049  -0.420028
    O   O76   0.614027  0.471820  0.979952  -0.420052
    O   O77   0.885972  0.971820  0.020049  -0.419994
    O   O78   0.449863  0.992275  0.560064  -0.581218
    O   O79   0.114027  0.971820  0.979952  -0.419952
    O   O80   0.283262  0.454119  0.294038  -0.463049
    O   O81   0.716738  0.454119  0.705963  -0.463158
    O   O82   0.783262  0.954119  0.294038  -0.463047
    O   O83   0.216738  0.954119  0.705963  -0.463160
    O   O84   0.986940  0.549378  0.598175  -0.631680
