# Generated by REPEAT Assigner based on pymatgen
data_DB0-m9_o11_o17_f0_sra.sym.123
_audit_creation_date              2022-05-24
_audit_creation_method            REPEAT_Assigner
_cell_length_a                    19.790100
_cell_length_b                    6.818000
_cell_length_c                    16.920701
_cell_angle_alpha                 90.000000
_cell_angle_beta                  108.145309
_cell_angle_gamma                 90.000000
_cell_volume                      2169.552846
_symmetry_space_group_name_H-M    P1
_symmetry_Int_Tables_number       1
loop_
    _symmetry_equiv_pos_site_id
    _symmetry_equiv_pos_as_xyz
    1  x,y,z
loop_
    _atom_site_type_symbol
    _atom_site_label
    _atom_site_fract_x
    _atom_site_fract_y
    _atom_site_fract_z
    _atom_type_partial_charge
    O  O1   0.414330  0.413096  0.424445  -0.546222
    O  O2   0.585670  0.913096  0.575555  -0.546180
    O  O3   0.554207  0.759746  0.417275  -0.502806
    O  O4   0.445793  0.259744  0.582725  -0.502806
    C  C1   0.581185  0.581652  0.413517  0.572419
    C  C2   0.418815  0.081652  0.586483  0.572418
    O  O5   0.412301  0.759958  0.398068  -0.506105
    O  O6   0.587699  0.259958  0.601933  -0.506090
    O  O7   0.434292  0.913297  0.555145  -0.496277
    O  O8   0.565708  0.413296  0.444856  -0.496285
    C  C3   0.385133  0.578914  0.386776  0.632527
    C  C4   0.614867  0.078913  0.613223  0.632470
    O  O9   0.510610  0.595698  0.550148  -0.459722
    O  O10  0.489391  0.095697  0.449852  -0.459687
    V  V1   0.496309  0.863533  0.485276  1.348890
    V  V2   0.503691  0.363533  0.514724  1.349124
    C  C5   0.784817  0.191667  0.793202  0.043063
    C  C6   0.215183  0.691668  0.206798  0.043107
    C  C7   0.819753  0.022181  0.814385  -0.333468
    C  C8   0.180247  0.522180  0.185614  -0.333393
    H  H1   0.807214  0.322963  0.827553  0.095976
    H  H2   0.192787  0.822963  0.172447  0.095950
    H  H3   0.798641  0.889119  0.780964  0.179224
    H  H4   0.201359  0.389120  0.219036  0.179182
    C  C9   0.716501  0.208411  0.724790  -0.096462
    C  C10  0.283499  0.708413  0.275210  -0.096493
    C  C11  0.683009  0.054676  0.680429  -0.256040
    C  C12  0.316992  0.554676  0.319571  -0.256079
    H  H5   0.692456  0.352274  0.710538  0.128607
    H  H6   0.307544  0.852274  0.289462  0.128620
    H  H7   0.705435  0.909046  0.693358  0.160241
    H  H8   0.294566  0.409047  0.306642  0.160267
    C  C13  0.334066  0.897084  0.641571  -0.274990
    C  C14  0.665934  0.397084  0.358429  -0.274968
    C  C15  0.370362  0.068516  0.637357  0.028409
    C  C16  0.629639  0.568517  0.362643  0.028391
    C  C17  0.359623  0.231754  0.680548  -0.316751
    C  C18  0.640377  0.731754  0.319453  -0.316731
    C  C19  0.313610  0.223961  0.727634  0.374353
    C  C20  0.686391  0.723961  0.272366  0.374313
    C  C21  0.277236  0.053544  0.731304  -0.219034
    C  C22  0.722764  0.553545  0.268696  -0.219005
    C  C23  0.287284  0.890301  0.688019  0.297735
    C  C24  0.712716  0.390300  0.311982  0.297717
    C  C25  0.303250  0.387649  0.770402  -0.451931
    C  C26  0.696750  0.887649  0.229598  -0.451892
    C  C27  0.256897  0.380847  0.816827  0.291716
    C  C28  0.743103  0.880847  0.183174  0.291641
    C  C29  0.220708  0.209895  0.821226  -0.137176
    C  C30  0.779292  0.709895  0.178773  -0.137124
    C  C31  0.230490  0.046965  0.777696  0.138731
    C  C32  0.769509  0.546966  0.222304  0.138731
    C  C33  0.193166  0.877950  0.780218  0.023087
    C  C34  0.806834  0.377950  0.219783  0.023032
    C  C35  0.202959  0.714727  0.736638  -0.038570
    C  C36  0.797041  0.214728  0.263362  -0.038527
    C  C37  0.249932  0.720715  0.690853  -0.308644
    C  C38  0.750068  0.220715  0.309147  -0.308658
    C  C39  0.173776  0.205194  0.867498  0.224705
    C  C40  0.826224  0.705193  0.132502  0.224671
    C  C41  0.135005  0.035037  0.869404  -0.151809
    C  C42  0.864995  0.535036  0.130596  -0.151784
    C  C43  0.145845  0.872201  0.825753  -0.156975
    C  C44  0.854155  0.372201  0.174247  -0.156947
    H  H9   0.341446  0.768746  0.607651  0.124977
    H  H10  0.658555  0.268746  0.392349  0.124976
    H  H11  0.387412  0.366643  0.677507  0.175354
    H  H12  0.612588  0.866643  0.322493  0.175357
    H  H13  0.331210  0.522141  0.767211  0.182522
    H  H14  0.668790  0.022141  0.232789  0.182516
    H  H15  0.248030  0.511479  0.848438  0.087806
    H  H16  0.751970  0.011480  0.151562  0.087828
    H  H17  0.116898  0.738517  0.827263  0.112122
    H  H18  0.883102  0.238518  0.172737  0.112118
    H  H19  0.173581  0.581822  0.738100  0.027055
    H  H20  0.826418  0.081822  0.261900  0.027048
    H  H21  0.257041  0.592566  0.656665  0.139524
    H  H22  0.742959  0.092567  0.343335  0.139523
    O  O11  0.934090  0.682059  0.051609  -0.484314
    O  O12  0.065910  0.182059  0.948391  -0.484400
    O  O13  0.083508  0.331550  0.103686  -0.550209
    O  O14  0.916492  0.831550  0.896315  -0.550362
    C  C45  0.112905  0.509797  0.116375  0.634857
    C  C46  0.887096  0.009797  0.883625  0.635058
    O  O15  0.940600  0.336374  0.078239  -0.461939
    O  O16  0.059400  0.836374  0.921761  -0.461930
    O  O17  0.913594  0.178433  0.921202  -0.525269
    O  O18  0.086406  0.678433  0.078798  -0.525223
    C  C47  0.915076  0.516699  0.081404  0.546432
    C  C48  0.084924  0.016699  0.918596  0.546495
    O  O19  0.993827  0.497044  0.949452  -0.503683
    O  O20  0.006173  0.997044  0.050548  -0.503762
    V  V3   0.001125  0.228023  0.014246  1.348669
    V  V4   0.998875  0.728023  0.985754  1.348280
    N  N1   0.168213  0.373688  0.913531  -0.441811
    C  C49  0.230576  0.442159  0.964015  0.718106
    O  O21  0.286465  0.374595  0.960014  -0.585938
    C  C50  0.231215  0.595515  0.026911  -0.650726
    H  H23  0.123303  0.406694  0.928841  0.271781
    H  H24  0.175777  0.635842  0.022055  0.161363
    H  H25  0.259831  0.726990  0.015485  0.182678
    H  H26  0.258484  0.537842  0.090112  0.203991
    N  N2   0.831787  0.873689  0.086469  -0.441809
    C  C51  0.769423  0.942160  0.035984  0.718109
    O  O22  0.713535  0.874595  0.039986  -0.585929
    C  C52  0.768785  0.095515  0.973089  -0.650761
    H  H27  0.876697  0.906694  0.071159  0.271770
    H  H28  0.824223  0.135842  0.977945  0.161379
    H  H29  0.740169  0.226989  0.984515  0.182690
    H  H30  0.741516  0.037842  0.909888  0.203997
