# generated using pymatgen
data_CuH8(C4O)4
_symmetry_space_group_name_H-M   'P 1'
_cell_length_a   21.43559300
_cell_length_b   21.42039500
_cell_length_c   60.79675100
_cell_angle_alpha   90.01396600
_cell_angle_beta   90.01366100
_cell_angle_gamma   59.97500000
_symmetry_Int_Tables_number   1
_chemical_formula_structural   CuH8(C4O)4
_chemical_formula_sum   'Cu24 H192 C384 O96'
_cell_volume   24169.32392871
_cell_formula_units_Z   24
loop_
 _symmetry_equiv_pos_site_id
 _symmetry_equiv_pos_as_xyz
  1  'x, y, z'
loop_
 _atom_site_type_symbol
 _atom_site_label
 _atom_site_symmetry_multiplicity
 _atom_site_fract_x
 _atom_site_fract_y
 _atom_site_fract_z
 _atom_site_occupancy
  Cu  Cu1  1  0.47390100  0.52992100  0.50385400  1
  Cu  Cu2  1  0.04467300  0.37724200  0.51693100  1
  Cu  Cu3  1  0.34374400  0.66503800  0.32751400  1
  Cu  Cu4  1  0.21112500  0.73024800  0.34167600  1
  Cu  Cu5  1  0.46354000  0.55375500  0.65597300  1
  Cu  Cu6  1  0.53616800  0.42928800  0.67499300  1
  Cu  Cu7  1  0.31903200  0.18241100  0.35401700  1
  Cu  Cu8  1  0.18433000  0.24693400  0.34192500  1
  Cu  Cu9  1  0.98174800  0.52530000  0.68479000  1
  Cu  Cu10  1  0.04681200  0.39979600  0.66607500  1
  Cu  Cu11  1  0.23245100  0.74470700  0.15338700  1
  Cu  Cu12  1  0.53697000  0.40154800  0.48677500  1
  Cu  Cu13  1  0.36056700  0.67468800  0.17084800  1
  Cu  Cu14  1  0.46786400  0.69653300  0.82835900  1
  Cu  Cu15  1  0.55020000  0.74926400  0.81843700  1
  Cu  Cu16  1  0.18858400  0.26646200  0.18034700  1
  Cu  Cu17  1  0.32136200  0.18950500  0.16677100  1
  Cu  Cu18  1  0.99417300  0.19013900  0.82876400  1
  Cu  Cu19  1  0.04481200  0.27297600  0.84171300  1
  Cu  Cu20  1  0.55660800  0.72840000  0.00594600  1
  Cu  Cu21  1  0.49345100  0.65785100  0.99282600  1
  Cu  Cu22  1  0.08072200  0.25060400  0.00114600  1
  Cu  Cu23  1  0.01716200  0.18194400  0.01554900  1
  Cu  Cu24  1  0.99258300  0.50017700  0.49697400  1
  H  H1  1  0.18218300  0.69014800  0.49677100  1
  H  H2  1  0.58957800  0.61512800  0.48454300  1
  H  H3  1  0.19170100  0.70067500  0.70517600  1
  H  H4  1  0.29260900  0.61228400  0.68527600  1
  H  H5  1  0.42727000  0.35969600  0.65375100  1
  H  H6  1  0.44087900  0.24231500  0.65194100  1
  H  H7  1  0.24676500  0.31373200  0.68662000  1
  H  H8  1  0.70218900  0.72784000  0.66791100  1
  H  H9  1  0.92086800  0.34292200  0.67719000  1
  H  H10  1  0.91550000  0.23735100  0.66818500  1
  H  H11  1  0.80656800  0.24747700  0.65152900  1
  H  H12  1  0.70215500  0.36275100  0.64626000  1
  H  H13  1  0.59721300  0.71083100  0.50267100  1
  H  H14  1  0.57579300  0.62971300  0.66805600  1
  H  H15  1  0.58480900  0.73493500  0.67031400  1
  H  H16  1  0.80910800  0.61533600  0.66483100  1
  H  H17  1  0.25765800  0.66142800  0.74041600  1
  H  H18  1  0.61887800  0.51967900  0.70465500  1
  H  H19  1  0.71936200  0.53802300  0.71007300  1
  H  H20  1  0.71129600  0.62838700  0.73612700  1
  H  H21  1  0.60639500  0.69529600  0.75799100  1
  H  H22  1  0.35351700  0.76192300  0.77502800  1
  H  H23  1  0.25033300  0.74935200  0.76742800  1
  H  H24  1  0.70929600  0.68650600  0.52090300  1
  H  H25  1  0.36663500  0.59028600  0.71950300  1
  H  H26  1  0.17375200  0.45520300  0.28448600  1
  H  H27  1  0.38337800  0.07552800  0.29938200  1
  H  H28  1  0.46365300  0.96997000  0.27869400  1
  H  H29  1  0.48329500  0.97875200  0.23941000  1
  H  H30  1  0.42017100  0.09254600  0.22070200  1
  H  H31  1  0.23760900  0.35496800  0.22278500  1
  H  H32  1  0.17311600  0.46186200  0.24432200  1
  H  H33  1  0.23796300  0.34134800  0.30297300  1
  H  H34  1  0.26062500  0.29124000  0.74439000  1
  H  H35  1  0.81311800  0.56880400  0.51967500  1
  H  H36  1  0.89655500  0.42303900  0.71308200  1
  H  H37  1  0.79247600  0.41768300  0.72476800  1
  H  H38  1  0.79395500  0.35816600  0.75928100  1
  H  H39  1  0.90017100  0.30054900  0.78132800  1
  H  H40  1  0.16216900  0.21843600  0.78977500  1
  H  H41  1  0.26669000  0.22161900  0.77714500  1
  H  H42  1  0.15000500  0.35741700  0.72420500  1
  H  H43  1  0.62543700  0.70853800  0.09913800  1
  H  H44  1  0.36560600  0.68720100  0.02782300  1
  H  H45  1  0.27554200  0.65472500  0.03103900  1
  H  H46  1  0.93348100  0.31630000  0.48841700  1
  H  H47  1  0.24481900  0.62560500  0.06698200  1
  H  H48  1  0.30105900  0.63654100  0.09961400  1
  H  H49  1  0.43689000  0.74998600  0.13277700  1
  H  H50  1  0.54742600  0.75238900  0.13168500  1
  H  H51  1  0.58874800  0.66941300  0.06719800  1
  H  H52  1  0.19984600  0.55099900  0.09123200  1
  H  H53  1  0.32067400  0.56201100  0.20072200  1
  H  H54  1  0.36599700  0.48519500  0.23218800  1
  H  H55  1  0.37712500  0.36547100  0.23196400  1
  H  H56  1  0.33721100  0.32617000  0.20071400  1
  H  H57  1  0.92300200  0.22805500  0.46773900  1
  H  H58  1  0.21066300  0.38182100  0.12956000  1
  H  H59  1  0.17928000  0.44891700  0.09575400  1
  H  H60  1  0.25020100  0.58646500  0.12056700  1
  H  H61  1  0.52031100  0.82596100  0.18014300  1
  H  H62  1  0.15911800  0.89458600  0.18251400  1
  H  H63  1  0.03847400  0.99304900  0.18285100  1
  H  H64  1  0.01452400  0.11736100  0.18087600  1
  H  H65  1  0.11033600  0.14173100  0.18098800  1
  H  H66  1  0.37005500  0.03377700  0.20327500  1
  H  H67  1  0.49360700  0.93646000  0.19998800  1
  H  H68  1  0.70264500  0.37244900  0.45678100  1
  H  H69  1  0.42483000  0.81044500  0.16620900  1
  H  H70  1  0.29869900  0.07335700  0.89780100  1
  H  H71  1  0.14480100  0.10809100  0.79124300  1
  H  H72  1  0.16911800  0.04057200  0.75771600  1
  H  H73  1  0.27451000  0.91914200  0.75471200  1
  H  H74  1  0.35585700  0.86648000  0.78521500  1
  H  H75  1  0.43337200  0.89185600  0.85904800  1
  H  H76  1  0.41105500  0.95853500  0.89272200  1
  H  H77  1  0.21005900  0.12160800  0.86920800  1
  H  H78  1  0.90327800  0.48746500  0.77774900  1
  H  H79  1  0.52513400  0.69829200  0.39356200  1
  H  H80  1  0.81281400  0.30178400  0.85716500  1
  H  H81  1  0.71351900  0.32010900  0.87972500  1
  H  H82  1  0.60269000  0.43776300  0.88067600  1
  H  H83  1  0.58943600  0.53399700  0.85779700  1
  H  H84  1  0.67947600  0.59673300  0.78878800  1
  H  H85  1  0.78156300  0.58335700  0.76850100  1
  H  H86  1  0.92196200  0.40447800  0.80649500  1
  H  H87  1  0.78025700  0.65482800  0.92921500  1
  H  H88  1  0.40793300  0.78416300  0.95317600  1
  H  H89  1  0.29586100  0.83357400  0.93462400  1
  H  H90  1  0.24965700  0.60168400  0.38398600  1
  H  H91  1  0.28966900  0.84731800  0.89453400  1
  H  H92  1  0.39612800  0.81064500  0.87358700  1
  H  H93  1  0.66380400  0.69496400  0.87014000  1
  H  H94  1  0.77537700  0.65628100  0.88895300  1
  H  H95  1  0.67386000  0.68944600  0.95057600  1
  H  H96  1  0.93084300  0.23425200  0.10710600  1
  H  H97  1  0.22001400  0.19444100  0.03815300  1
  H  H98  1  0.32227000  0.21082800  0.04045500  1
  H  H99  1  0.35280500  0.24757200  0.07516000  1
  H  H100  1  0.28490200  0.26063600  0.10782700  1
  H  H101  1  0.20318100  0.53979400  0.40472000  1
  H  H102  1  0.11463400  0.19109000  0.14383400  1
  H  H103  1  0.99891700  0.19996800  0.14169800  1
  H  H104  1  0.98203700  0.25250900  0.07443800  1
  H  H105  1  0.45240400  0.31508400  0.50932800  1
  H  H106  1  0.25451700  0.48715200  0.44053200  1
  H  H107  1  0.35648800  0.49179600  0.45473600  1
  H  H108  1  0.53754500  0.56741200  0.44698400  1
  H  H109  1  0.58286500  0.63389600  0.42760100  1
  H  H110  1  0.42297200  0.69602000  0.37899600  1
  H  H111  1  0.35675800  0.36735200  0.55902200  1
  H  H112  1  0.66765000  0.39703200  0.54125000  1
  H  H113  1  0.74558300  0.42804600  0.56131800  1
  H  H114  1  0.72958300  0.45088200  0.60107000  1
  H  H115  1  0.63681700  0.44163500  0.62040000  1
  H  H116  1  0.45869600  0.20173200  0.50907500  1
  H  H117  1  0.43349900  0.39563500  0.61992400  1
  H  H118  1  0.34710900  0.37914300  0.59921000  1
  H  H119  1  0.45359900  0.37129400  0.54007200  1
  H  H120  1  0.22165000  0.97398800  0.93913500  1
  H  H121  1  0.88253600  0.27309900  0.96453300  1
  H  H122  1  0.77587000  0.36436900  0.94602700  1
  H  H123  1  0.77765900  0.38326900  0.90636400  1
  H  H124  1  0.88302600  0.30464500  0.88473900  1
  H  H125  1  0.11721700  0.07898100  0.88025100  1
  H  H126  1  0.21790600  0.98098500  0.89887100  1
  H  H127  1  0.34894100  0.19364300  0.50667000  1
  H  H128  1  0.12494200  0.06653600  0.96088900  1
  H  H129  1  0.28620700  0.83718300  0.06640000  1
  H  H130  1  0.43314500  0.87020400  0.96553400  1
  H  H131  1  0.41285100  0.95773800  0.93794600  1
  H  H132  1  0.30551700  0.07813000  0.93936900  1
  H  H133  1  0.22069600  0.11048800  0.96851300  1
  H  H134  1  0.17227900  0.05233500  0.04453600  1
  H  H135  1  0.19477000  0.96395500  0.07219800  1
  H  H136  1  0.35488600  0.80057200  0.03301800  1
  H  H137  1  0.80992800  0.39159500  0.08009800  1
  H  H138  1  0.23437600  0.29891200  0.50619400  1
  H  H139  1  0.93321500  0.37603700  0.96899500  1
  H  H140  1  0.88900300  0.44010200  0.93551900  1
  H  H141  1  0.76234000  0.53269800  0.93164100  1
  H  H142  1  0.68130100  0.56529300  0.96224900  1
  H  H143  1  0.63753500  0.53765300  0.04006300  1
  H  H144  1  0.68265700  0.48336200  0.07539300  1
  H  H145  1  0.89168900  0.35460000  0.04954900  1
  H  H146  1  0.00517500  0.20182500  0.40049900  1
  H  H147  1  0.31369600  0.24854400  0.40839900  1
  H  H148  1  0.35790500  0.30698900  0.43135300  1
  H  H149  1  0.09181900  0.57134600  0.52253700  1
  H  H150  1  0.28690000  0.38036900  0.46242700  1
  H  H151  1  0.17094700  0.39472000  0.47003100  1
  H  H152  1  0.97779700  0.34227100  0.45305400  1
  H  H153  1  0.93168300  0.28236700  0.43008700  1
  H  H154  1  0.12283000  0.18465100  0.39268600  1
  H  H155  1  0.20816200  0.50955200  0.60742900  1
  H  H156  1  0.86151500  0.56795600  0.63290300  1
  H  H157  1  0.75856000  0.57175500  0.61532000  1
  H  H158  1  0.75711000  0.55797200  0.57529300  1
  H  H159  1  0.85833800  0.53997200  0.55336700  1
  H  H160  1  0.08188100  0.68470100  0.51425900  1
  H  H161  1  0.10629900  0.49640200  0.54976600  1
  H  H162  1  0.21039500  0.48749100  0.56772100  1
  H  H163  1  0.10170400  0.53955000  0.62878900  1
  H  H164  1  0.42765000  0.33904500  0.40060400  1
  H  H165  1  0.10165600  0.45202000  0.34619700  1
  H  H166  1  0.02061400  0.54462700  0.32151100  1
  H  H167  1  0.06000400  0.61759600  0.30119800  1
  H  H168  1  0.18072200  0.59737700  0.30624200  1
  H  H169  1  0.39606400  0.49956600  0.35507900  1
  H  H170  1  0.46326100  0.42154000  0.38454700  1
  H  H171  1  0.29381500  0.58218200  0.49004300  1
  H  H172  1  0.32472200  0.33540800  0.38645000  1
  H  H173  1  0.35885500  0.95337900  0.41233300  1
  H  H174  1  0.21489100  0.09984700  0.30600100  1
  H  H175  1  0.15559800  0.07665300  0.27630300  1
  H  H176  1  0.14021800  0.97060400  0.27704100  1
  H  H177  1  0.18902100  0.88552500  0.30675800  1
  H  H178  1  0.32489300  0.80589300  0.37578600  1
  H  H179  1  0.36788500  0.83517000  0.40850900  1
  H  H180  1  0.30832500  0.04089100  0.38349800  1
  H  H181  1  0.09320900  0.62958900  0.22406700  1
  H  H182  1  0.80787600  0.25649000  0.45091800  1
  H  H183  1  0.26585000  0.83321700  0.20918300  1
  H  H184  1  0.32759100  0.88256300  0.22954700  1
  H  H185  1  0.34155300  0.86544100  0.26955600  1
  H  H186  1  0.29187200  0.80291500  0.28850400  1
  H  H187  1  0.13112100  0.69618900  0.28566600  1
  H  H188  1  0.07989800  0.63766800  0.26408300  1
  H  H189  1  0.15496500  0.68243100  0.20537000  1
  H  H190  1  0.35150000  0.21805200  0.66902600  1
  H  H191  1  0.11628000  0.55539300  0.71500000  1
  H  H192  1  0.10447800  0.67160900  0.72122600  1
  C  C1  1  0.45473000  0.52203700  0.45688600  1
  C  C2  1  0.40775200  0.81573900  0.99844200  1
  C  C3  1  0.55637600  0.38969200  0.55787700  1
  C  C4  1  0.44078100  0.38914200  0.60243500  1
  C  C5  1  0.39095100  0.38012900  0.59074300  1
  C  C6  1  0.39630600  0.37362100  0.56830100  1
  C  C7  1  0.45159400  0.37594500  0.55759800  1
  C  C8  1  0.88445900  0.27776400  0.94690500  1
  C  C9  1  0.82338200  0.32949400  0.93651600  1
  C  C10  1  0.82425900  0.33975300  0.91427100  1
  C  C11  1  0.88432100  0.29468000  0.90210200  1
  C  C12  1  0.94387600  0.23809700  0.91209400  1
  C  C13  1  0.54416300  0.71408900  0.95822900  1
  C  C14  1  0.94521600  0.23208200  0.93480300  1
  C  C15  1  0.00270800  0.18932100  0.89967600  1
  C  C16  1  0.06066400  0.13208700  0.91013400  1
  C  C17  1  0.06348300  0.12891200  0.93292000  1
  C  C18  1  0.00781100  0.18203000  0.94529300  1
  C  C19  1  0.11719700  0.07902400  0.89800300  1
  C  C20  1  0.17467600  0.02262100  0.90844700  1
  C  C21  1  0.17686400  0.01887500  0.93099200  1
  C  C22  1  0.12203700  0.07210900  0.94322400  1
  C  C23  1  0.38487500  0.92178400  0.96700600  1
  C  C24  1  0.64553700  0.57388600  0.00157100  1
  C  C25  1  0.37442400  0.97178600  0.95117800  1
  C  C26  1  0.31471400  0.03902300  0.95202000  1
  C  C27  1  0.26673600  0.05707900  0.96908800  1
  C  C28  1  0.27783900  0.00767500  0.98568900  1
  C  C29  1  0.33536500  0.93828400  0.98395400  1
  C  C30  1  0.23272200  0.02612500  0.00393000  1
  C  C31  1  0.24686400  0.97624000  0.02056600  1
  C  C32  1  0.30024600  0.90559800  0.01772400  1
  C  C33  1  0.34293000  0.88602400  0.99903600  1
  C  C34  1  0.21016500  0.99693500  0.04055700  1
  C  C35  1  0.08791300  0.22846200  0.04819000  1
  C  C36  1  0.22370000  0.94712400  0.05679100  1
  C  C37  1  0.27490000  0.87640600  0.05358300  1
  C  C38  1  0.31365200  0.85596800  0.03434600  1
  C  C39  1  0.87807700  0.41867500  0.96907300  1
  C  C40  1  0.85324500  0.45490000  0.94950700  1
  C  C41  1  0.78243900  0.50688900  0.94734700  1
  C  C42  1  0.73676500  0.52468000  0.96500000  1
  C  C43  1  0.76170700  0.49006200  0.98512500  1
  C  C44  1  0.83293600  0.43642200  0.98733400  1
  C  C45  1  0.71542800  0.50892200  0.00291000  1
  C  C46  1  0.92783300  0.33596600  0.00932700  1
  C  C47  1  0.73996600  0.47622200  0.02317700  1
  C  C48  1  0.81100800  0.42272500  0.02559000  1
  C  C49  1  0.85713000  0.40115900  0.00754800  1
  C  C50  1  0.69386700  0.49736600  0.04120200  1
  C  C51  1  0.71884200  0.46644300  0.06146900  1
  C  C52  1  0.78990300  0.41491200  0.06407200  1
  C  C53  1  0.83589000  0.39326300  0.04634500  1
  C  C54  1  0.27896200  0.27992800  0.42153600  1
  C  C55  1  0.30581500  0.31277500  0.43480800  1
  C  C56  1  0.26633600  0.35344600  0.45223400  1
  C  C57  1  0.02079100  0.19418000  0.96827700  1
  C  C58  1  0.20036200  0.36052200  0.45659600  1
  C  C59  1  0.17289100  0.32618600  0.44381900  1
  C  C60  1  0.21218300  0.28594200  0.42568900  1
  C  C61  1  0.10596500  0.33383200  0.44888100  1
  C  C62  1  0.07903300  0.29978500  0.43571600  1
  C  C63  1  0.11830800  0.25884600  0.41771800  1
  C  C64  1  0.18340000  0.25438300  0.41186100  1
  C  C65  1  0.01165300  0.30814300  0.43998100  1
  C  C66  1  0.98472200  0.27447800  0.42700400  1
  C  C67  1  0.02552500  0.22999600  0.41023800  1
  C  C68  1  0.16676000  0.09557800  0.00529100  1
  C  C69  1  0.09197600  0.22178400  0.40566000  1
  C  C70  1  0.86264000  0.56191800  0.61544500  1
  C  C71  1  0.80381400  0.56437500  0.60551600  1
  C  C72  1  0.80292900  0.55679400  0.58315600  1
  C  C73  1  0.86085700  0.54680200  0.57077600  1
  C  C74  1  0.92004600  0.54535800  0.58057700  1
  C  C75  1  0.92096300  0.55308500  0.60322800  1
  C  C76  1  0.98007400  0.53049900  0.56807700  1
  C  C77  1  0.03990100  0.52649900  0.57858300  1
  C  C78  1  0.03981300  0.53624100  0.60113900  1
  C  C79  1  0.06775300  0.37218600  0.46922800  1
  C  C80  1  0.98179500  0.54630700  0.61375200  1
  C  C81  1  0.10243600  0.50759600  0.56695700  1
  C  C82  1  0.16235500  0.50180700  0.57717700  1
  C  C83  1  0.16119700  0.51391300  0.59935600  1
  C  C84  1  0.10052700  0.53039000  0.61135300  1
  C  C85  1  0.12295400  0.47946800  0.33665300  1
  C  C86  1  0.07516100  0.53426100  0.32326700  1
  C  C87  1  0.09696400  0.57542900  0.31207900  1
  C  C88  1  0.16506400  0.56456100  0.31542200  1
  C  C89  1  0.21185900  0.51296400  0.33020100  1
  C  C90  1  0.13884400  0.43709400  0.51067700  1
  C  C91  1  0.19335800  0.46548000  0.33924900  1
  C  C92  1  0.27524000  0.51097000  0.33635500  1
  C  C93  1  0.31969100  0.46124900  0.35208100  1
  C  C94  1  0.30294000  0.41093000  0.36010300  1
  C  C95  1  0.24423200  0.40767100  0.35160200  1
  C  C96  1  0.37877900  0.46328200  0.36081800  1
  C  C97  1  0.41830200  0.41841500  0.37775100  1
  C  C98  1  0.39874000  0.37205600  0.38662400  1
  C  C99  1  0.34137200  0.36865300  0.37797200  1
  C  C100  1  0.20950500  0.05256400  0.30724700  1
  C  C101  1  0.98795100  0.49975800  0.54578300  1
  C  C102  1  0.17630400  0.03945100  0.28996600  1
  C  C103  1  0.16799500  0.98006300  0.29032700  1
  C  C104  1  0.19705700  0.93129100  0.30726000  1
  C  C105  1  0.23435900  0.94180900  0.32418200  1
  C  C106  1  0.23557600  0.00556000  0.32508500  1
  C  C107  1  0.27006400  0.88944400  0.34015300  1
  C  C108  1  0.29649700  0.90535400  0.35883800  1
  C  C109  1  0.29195100  0.97182300  0.36082300  1
  C  C110  1  0.26334300  0.02117300  0.34360400  1
  C  C111  1  0.32352900  0.85675200  0.37617900  1
  C  C112  1  0.62100400  0.47309900  0.48830800  1
  C  C113  1  0.89506800  0.44559000  0.50227400  1
  C  C114  1  0.34709000  0.87341500  0.39510600  1
  C  C115  1  0.34197900  0.93951100  0.39724100  1
  C  C116  1  0.31378300  0.98886200  0.38041000  1
  C  C117  1  0.27245100  0.82334200  0.22644600  1
  C  C118  1  0.30651400  0.85267000  0.23801300  1
  C  C119  1  0.31411100  0.84325600  0.26029200  1
  C  C120  1  0.28505200  0.80719600  0.27097200  1
  C  C121  1  0.24769300  0.77976300  0.25951100  1
  C  C122  1  0.24453300  0.78521200  0.23685800  1
  C  C123  1  0.21487800  0.74645500  0.27038300  1
  C  C124  1  0.32751200  0.65832700  0.37449100  1
  C  C125  1  0.17724900  0.72101000  0.25800100  1
  C  C126  1  0.18108900  0.71995200  0.23510900  1
  C  C127  1  0.21643500  0.75062300  0.22447700  1
  C  C128  1  0.13951000  0.69223700  0.26818300  1
  C  C129  1  0.10924200  0.65994000  0.25601000  1
  C  C130  1  0.11645400  0.65558600  0.23355200  1
  C  C131  1  0.15189900  0.68566200  0.22308300  1
  C  C132  1  0.15229500  0.56793200  0.70619200  1
  C  C133  1  0.14676500  0.63330100  0.71059800  1
  C  C134  1  0.19584200  0.64918700  0.70181500  1
  C  C135  1  0.27361400  0.81984000  0.33825700  1
  C  C136  1  0.25350500  0.59766700  0.69014500  1
  C  C137  1  0.25940200  0.53132100  0.68523000  1
  C  C138  1  0.20491000  0.51866500  0.69199400  1
  C  C139  1  0.31952300  0.47708200  0.67437900  1
  C  C140  1  0.32532200  0.40960800  0.67130600  1
  C  C141  1  0.27044500  0.39780900  0.67814500  1
  C  C142  1  0.20597500  0.45538700  0.68568300  1
  C  C143  1  0.38523400  0.35324300  0.66105000  1
  C  C144  1  0.39350400  0.28550900  0.65967600  1
  C  C145  1  0.34332300  0.27210400  0.66899100  1
  C  C146  1  0.23437400  0.72555300  0.29368000  1
  C  C147  1  0.28242700  0.32767900  0.67824700  1
  C  C148  1  0.87255600  0.35104500  0.66918600  1
  C  C149  1  0.86958400  0.28980300  0.66474800  1
  C  C150  1  0.80871000  0.29545900  0.65564400  1
  C  C151  1  0.74889300  0.36223700  0.65292200  1
  C  C152  1  0.74972100  0.42498500  0.65861400  1
  C  C153  1  0.81451200  0.41920700  0.66435400  1
  C  C154  1  0.68675700  0.49221600  0.65947800  1
  C  C155  1  0.69062500  0.55454900  0.66313600  1
  C  C156  1  0.75751800  0.54946700  0.66464300  1
  C  C157  1  0.27711900  0.57766300  0.33354200  1
  C  C158  1  0.81971100  0.48117300  0.66602100  1
  C  C159  1  0.62899700  0.62183400  0.66627900  1
  C  C160  1  0.63323600  0.68334400  0.66815400  1
  C  C161  1  0.69864700  0.67931900  0.66699300  1
  C  C162  1  0.76014300  0.61335500  0.66550400  1
  C  C163  1  0.61277000  0.55937800  0.71651600  1
  C  C164  1  0.67101800  0.56856500  0.71968000  1
  C  C165  1  0.66690700  0.61835700  0.73449500  1
  C  C166  1  0.60657500  0.65539300  0.74732700  1
  C  C167  1  0.54779400  0.64488100  0.74509100  1
  C  C168  1  0.52511500  0.43374100  0.62622800  1
  C  C169  1  0.54966900  0.59915400  0.72842700  1
  C  C170  1  0.48723400  0.67962200  0.75878300  1
  C  C171  1  0.42525100  0.67749000  0.75278500  1
  C  C172  1  0.42700500  0.63301800  0.73582400  1
  C  C173  1  0.48941200  0.59283400  0.72369400  1
  C  C174  1  0.35997300  0.72139100  0.76331100  1
  C  C175  1  0.30019100  0.71587700  0.75874500  1
  C  C176  1  0.30403100  0.66735800  0.74337500  1
  C  C177  1  0.36638000  0.62731700  0.73157200  1
  C  C178  1  0.38927800  0.08236300  0.28209200  1
  C  C179  1  0.61802100  0.49343600  0.66097800  1
  C  C180  1  0.43510800  0.02147500  0.27043600  1
  C  C181  1  0.44575200  0.02635000  0.24843400  1
  C  C182  1  0.40828700  0.09153200  0.23779800  1
  C  C183  1  0.36005700  0.15341100  0.24908400  1
  C  C184  1  0.35321000  0.14918400  0.27176500  1
  C  C185  1  0.31649500  0.21835400  0.23801100  1
  C  C186  1  0.27669800  0.28099700  0.25042500  1
  C  C187  1  0.27476400  0.27737300  0.27316700  1
  C  C188  1  0.30838300  0.21100900  0.28374400  1
  C  C189  1  0.23850900  0.34817800  0.24031000  1
  C  C190  1  0.48779200  0.55516000  0.70340600  1
  C  C191  1  0.20148700  0.41014200  0.25247500  1
  C  C192  1  0.20178700  0.40647000  0.27493100  1
  C  C193  1  0.23795300  0.34078700  0.28526000  1
  C  C194  1  0.90097700  0.39438600  0.72806400  1
  C  C195  1  0.84078700  0.39228200  0.73464900  1
  C  C196  1  0.84178500  0.35856000  0.75387700  1
  C  C197  1  0.90351200  0.32520400  0.76632200  1
  C  C198  1  0.96598400  0.32441500  0.75956600  1
  C  C199  1  0.96401500  0.36080900  0.74040000  1
  C  C200  1  0.02921900  0.28997700  0.77200400  1
  C  C201  1  0.38370900  0.48415200  0.67089900  1
  C  C202  1  0.09070000  0.28998300  0.76449200  1
  C  C203  1  0.08798200  0.32761100  0.74557200  1
  C  C204  1  0.02425700  0.36437600  0.73374900  1
  C  C205  1  0.15588700  0.25139000  0.77560400  1
  C  C206  1  0.21637700  0.25196700  0.76837600  1
  C  C207  1  0.21306000  0.29070600  0.75001300  1
  C  C208  1  0.14948000  0.32816500  0.73858900  1
  C  C209  1  0.35720900  0.67314500  0.04405300  1
  C  C210  1  0.30311200  0.65674800  0.04567400  1
  C  C211  1  0.28539700  0.64129100  0.06570700  1
  C  C212  1  0.20950100  0.23355100  0.38889500  1
  C  C213  1  0.31694800  0.64921100  0.08428800  1
  C  C214  1  0.36796200  0.67109300  0.08305800  1
  C  C215  1  0.39508400  0.67462200  0.06260800  1
  C  C216  1  0.39111400  0.69000900  0.10197800  1
  C  C217  1  0.44852600  0.70336000  0.10036100  1
  C  C218  1  0.48620100  0.69073000  0.08070400  1
  C  C219  1  0.45760200  0.68077900  0.06125300  1
  C  C220  1  0.46914500  0.72975600  0.11816500  1
  C  C221  1  0.53151400  0.73299200  0.11755400  1
  C  C222  1  0.57468300  0.70921400  0.09931100  1
  C  C223  1  0.54369100  0.41396000  0.53482900  1
  C  C224  1  0.24482500  0.33829000  0.35164300  1
  C  C225  1  0.55216200  0.68864200  0.08094200  1
  C  C226  1  0.32537000  0.50976300  0.19943300  1
  C  C227  1  0.35016200  0.46679600  0.21781000  1
  C  C228  1  0.35596800  0.40016700  0.21774200  1
  C  C229  1  0.33218100  0.37870600  0.19987200  1
  C  C230  1  0.30327600  0.42343300  0.18170100  1
  C  C231  1  0.30553500  0.48659200  0.18065000  1
  C  C232  1  0.27128500  0.40585300  0.16485400  1
  C  C233  1  0.24921000  0.44645400  0.14577900  1
  C  C234  1  0.25870400  0.50549400  0.14359300  1
  C  C235  1  0.29010500  0.20735200  0.30693400  1
  C  C236  1  0.28608300  0.52638900  0.16119200  1
  C  C237  1  0.21978500  0.42692900  0.12854400  1
  C  C238  1  0.20163800  0.46476800  0.10912700  1
  C  C239  1  0.21308800  0.52185800  0.10661700  1
  C  C240  1  0.24145200  0.54209500  0.12363800  1
  C  C241  1  0.15219000  0.94747300  0.18047200  1
  C  C242  1  0.08260800  0.00361300  0.18141400  1
  C  C243  1  0.06931600  0.07287200  0.18044000  1
  C  C244  1  0.12574500  0.08598500  0.18037300  1
  C  C245  1  0.19704100  0.02945800  0.18041900  1
  C  C246  1  0.25893700  0.09119200  0.34541700  1
  C  C247  1  0.21008200  0.95946100  0.17816200  1
  C  C248  1  0.25576100  0.03999100  0.18323100  1
  C  C249  1  0.32432500  0.97975200  0.18548500  1
  C  C250  1  0.33809400  0.91340200  0.17799400  1
  C  C251  1  0.28031000  0.90276000  0.17392300  1
  C  C252  1  0.38037300  0.98564700  0.19470600  1
  C  C253  1  0.45033000  0.93028500  0.19327100  1
  C  C254  1  0.46515700  0.86853800  0.18233300  1
  C  C255  1  0.40956800  0.85980900  0.17479900  1
  C  C256  1  0.19031800  0.05410300  0.79110500  1
  C  C257  1  0.99686800  0.51963600  0.63656300  1
  C  C258  1  0.20426400  0.01641400  0.77170300  1
  C  C259  1  0.26321500  0.94860200  0.77000800  1
  C  C260  1  0.30888700  0.91879000  0.78762900  1
  C  C261  1  0.29519700  0.95633800  0.80732800  1
  C  C262  1  0.23508800  0.02393400  0.80926100  1
  C  C263  1  0.34164700  0.92700600  0.82497100  1
  C  C264  1  0.33203300  0.96766300  0.84379400  1
  C  C265  1  0.27020100  0.03398800  0.84622300  1
  C  C266  1  0.22043600  0.06099200  0.82913800  1
  C  C267  1  0.38305600  0.94170900  0.86050700  1
  C  C268  1  0.13693000  0.45545500  0.68279900  1
  C  C269  1  0.37122700  0.97965500  0.87975500  1
  C  C270  1  0.30852900  0.04387200  0.88257300  1
  C  C271  1  0.25819000  0.07100900  0.86599500  1
  C  C272  1  0.76477700  0.35384900  0.85639700  1
  C  C273  1  0.70809100  0.36339900  0.86928900  1
  C  C274  1  0.64613400  0.42902200  0.86976400  1
  C  C275  1  0.63885600  0.48356000  0.85619800  1
  C  C276  1  0.69354600  0.47270300  0.84160500  1
  C  C277  1  0.75894700  0.40911200  0.84299900  1
  C  C278  1  0.68508100  0.52444100  0.82609000  1
  C  C279  1  0.02265800  0.40050500  0.71299500  1
  C  C280  1  0.74207400  0.51172000  0.81228200  1
  C  C281  1  0.80983200  0.45412500  0.81631400  1
  C  C282  1  0.81847500  0.40280800  0.83183400  1
  C  C283  1  0.73212300  0.55591500  0.79424900  1
  C  C284  1  0.78972600  0.54768500  0.78209200  1
  C  C285  1  0.85774300  0.49422300  0.78728300  1
  C  C286  1  0.86770500  0.44698500  0.80396200  1
  C  C287  1  0.40995500  0.78635100  0.93561300  1
  C  C288  1  0.34457100  0.81572300  0.92516200  1
  C  C289  1  0.34107900  0.82347800  0.90284900  1
  C  C290  1  0.89070600  0.47377300  0.66957700  1
  C  C291  1  0.40309900  0.80108500  0.89101300  1
  C  C292  1  0.47026900  0.76989700  0.90128800  1
  C  C293  1  0.47386900  0.76355700  0.92398100  1
  C  C294  1  0.53299900  0.74473800  0.88895000  1
  C  C295  1  0.59869200  0.72099200  0.89969500  1
  C  C296  1  0.60195400  0.71777300  0.92262200  1
  C  C297  1  0.54024800  0.73504800  0.93481500  1
  C  C298  1  0.66218000  0.69672600  0.88782300  1
  C  C299  1  0.72667000  0.67398800  0.89840700  1
  C  C300  1  0.72938900  0.67323500  0.92092100  1
  C  C301  1  0.24179100  0.73139800  0.20159900  1
  C  C302  1  0.66798800  0.69329000  0.93297300  1
  C  C303  1  0.22961600  0.21212000  0.05370200  1
  C  C304  1  0.28969200  0.21934600  0.05493100  1
  C  C305  1  0.30716800  0.23916300  0.07434900  1
  C  C306  1  0.26854300  0.24517000  0.09302000  1
  C  C307  1  0.21061900  0.23291900  0.09236700  1
  C  C308  1  0.18581000  0.22459300  0.07201200  1
  C  C309  1  0.17787000  0.22848200  0.11165400  1
  C  C310  1  0.11623600  0.22186000  0.10993000  1
  C  C311  1  0.08311900  0.22926100  0.08961800  1
  C  C312  1  0.29270700  0.59116900  0.15970000  1
  C  C313  1  0.11891900  0.22784000  0.07026700  1
  C  C314  1  0.08693700  0.20718000  0.12830600  1
  C  C315  1  0.02141800  0.21034700  0.12718300  1
  C  C316  1  0.98373000  0.22880000  0.10782700  1
  C  C317  1  0.01436900  0.23770000  0.08912300  1
  C  C318  1  0.35608400  0.69500800  0.12354500  1
  C  C319  1  0.39304700  0.45455400  0.50121300  1
  C  C320  1  0.29190800  0.83152300  0.16718700  1
  C  C321  1  0.52878600  0.73487200  0.86505400  1
  C  C322  1  0.61993900  0.59554900  0.82527300  1
  C  C323  1  0.49218600  0.70132200  0.78186600  1
  C  C324  1  0.40157900  0.85329900  0.82361400  1
  C  C325  1  0.29737100  0.22006900  0.21439200  1
  C  C326  1  0.25220300  0.11013400  0.18018200  1
  C  C327  1  0.20717300  0.23089100  0.13369600  1
  C  C328  1  0.26336900  0.34256300  0.16705600  1
  C  C329  1  0.40171700  0.31648500  0.50861800  1
  C  C330  1  0.00814300  0.20353400  0.87627800  1
  C  C331  1  0.40651300  0.25023900  0.50876300  1
  C  C332  1  0.34537800  0.24571900  0.50759900  1
  C  C333  1  0.27933600  0.30739900  0.50790200  1
  C  C334  1  0.27310400  0.37538400  0.50948900  1
  C  C335  1  0.33507100  0.38015800  0.50786600  1
  C  C336  1  0.20645500  0.43849500  0.51175800  1
  C  C337  1  0.20230700  0.50574600  0.51102000  1
  C  C338  1  0.26192400  0.50990900  0.50493200  1
  C  C339  1  0.32915200  0.44779200  0.50476500  1
  C  C340  1  0.13855500  0.56991700  0.51550300  1
  C  C341  1  0.14858900  0.12297300  0.83253800  1
  C  C342  1  0.13214200  0.63569900  0.51108100  1
  C  C343  1  0.18818000  0.63879900  0.50151400  1
  C  C344  1  0.25260600  0.57647000  0.49837600  1
  C  C345  1  0.63836000  0.60111600  0.49343400  1
  C  C346  1  0.64296600  0.65671800  0.50299200  1
  C  C347  1  0.70569900  0.64328100  0.51295000  1
  C  C348  1  0.76515200  0.57546000  0.51192500  1
  C  C349  1  0.76235600  0.51909200  0.50141000  1
  C  C350  1  0.69633700  0.53089500  0.49389300  1
  C  C351  1  0.82428500  0.45169700  0.49867700  1
  C  C352  1  0.02863600  0.26477100  0.79459100  1
  C  C353  1  0.81935600  0.39722200  0.48761200  1
  C  C354  1  0.75281600  0.40973100  0.48024000  1
  C  C355  1  0.69009700  0.47322900  0.48604600  1
  C  C356  1  0.88022800  0.33084500  0.48304200  1
  C  C357  1  0.87521700  0.27929000  0.47101100  1
  C  C358  1  0.81091900  0.29489600  0.46174900  1
  C  C359  1  0.75061200  0.36015400  0.46590500  1
  C  C360  1  0.27423500  0.58095200  0.39969200  1
  C  C361  1  0.24742500  0.54458400  0.41132300  1
  C  C362  1  0.27657600  0.51451100  0.43125900  1
  C  C363  1  0.88979800  0.33990300  0.83512300  1
  C  C364  1  0.33459600  0.51809900  0.43924500  1
  C  C365  1  0.36295700  0.55406300  0.42760100  1
  C  C366  1  0.33082600  0.58841200  0.40793700  1
  C  C367  1  0.42310800  0.55533600  0.43554400  1
  C  C368  1  0.44993300  0.59295400  0.42415400  1
  C  C369  1  0.41738000  0.62869700  0.40471200  1
  C  C370  1  0.35710300  0.62715100  0.39645400  1
  C  C371  1  0.50974900  0.59495900  0.43215500  1
  C  C372  1  0.53649600  0.63257200  0.42119600  1
  C  C373  1  0.50430100  0.66842100  0.40215800  1
  C  C374  1  0.49096700  0.67904400  0.03950200  1
  C  C375  1  0.44555200  0.66649500  0.39393300  1
  C  C376  1  0.65907300  0.40623800  0.55874300  1
  C  C377  1  0.70413000  0.42332400  0.57000400  1
  C  C378  1  0.69534000  0.43583600  0.59221200  1
  C  C379  1  0.64267600  0.42960900  0.60322400  1
  C  C380  1  0.59844600  0.40972900  0.59234900  1
  C  C381  1  0.60556700  0.40004900  0.56974000  1
  C  C382  1  0.54447600  0.40463900  0.60366000  1
  C  C383  1  0.49751200  0.39042300  0.59185500  1
  C  C384  1  0.50315800  0.38347500  0.56912900  1
  O  O1  1  0.43494000  0.56291000  0.47447600  1
  O  O2  1  0.03640200  0.24361900  0.87130200  1
  O  O3  1  0.09334200  0.11403600  0.82894900  1
  O  O4  1  0.13929500  0.18664600  0.83775700  1
  O  O5  1  0.00861200  0.21696100  0.79883800  1
  O  O6  1  0.04560500  0.29409400  0.81073600  1
  O  O7  1  0.90137100  0.27701000  0.82835700  1
  O  O8  1  0.94313700  0.34818500  0.84232100  1
  O  O9  1  0.52014100  0.71950500  0.03525200  1
  O  O10  1  0.48472100  0.64170100  0.02357200  1
  O  O11  1  0.46736200  0.81434200  0.00337900  1
  O  O12  1  0.50149300  0.45250300  0.45844400  1
  O  O13  1  0.40669700  0.75568400  0.99428000  1
  O  O14  1  0.56889700  0.73884300  0.97390100  1
  O  O15  1  0.51366500  0.67628400  0.96342300  1
  O  O16  1  0.64115300  0.63426600  0.00785500  1
  O  O17  1  0.58916400  0.57232100  0.99382700  1
  O  O18  1  0.09658100  0.26369700  0.03194100  1
  O  O19  1  0.05605400  0.19042200  0.04431000  1
  O  O20  1  0.98606200  0.33604900  0.00279300  1
  O  O21  1  0.93126200  0.27640000  0.01634000  1
  O  O22  1  0.05836800  0.22635500  0.97209300  1
  O  O23  1  0.56309300  0.52885700  0.49642100  1
  O  O24  1  0.99563800  0.17343300  0.98470500  1
  O  O25  1  0.16719500  0.15606900  0.00239700  1
  O  O26  1  0.10707400  0.09599300  0.01005600  1
  O  O27  1  0.02951600  0.44318100  0.46965700  1
  O  O28  1  0.07921200  0.33525000  0.48753800  1
  O  O29  1  0.08680600  0.48693900  0.49894900  1
  O  O30  1  0.13019600  0.38711100  0.52041400  1
  O  O31  1  0.97275800  0.53930100  0.52773000  1
  O  O32  1  0.01546700  0.42990500  0.54432400  1
  O  O33  1  0.90538800  0.49617800  0.49409700  1
  O  O34  1  0.62054700  0.41288100  0.48528300  1
  O  O35  1  0.94748600  0.39083300  0.51287900  1
  O  O36  1  0.37208400  0.63789900  0.35780700  1
  O  O37  1  0.25762900  0.70101400  0.37113300  1
  O  O38  1  0.33282300  0.76187700  0.33152300  1
  O  O39  1  0.21640200  0.81660100  0.34357100  1
  O  O40  1  0.30323400  0.68851800  0.29830800  1
  O  O41  1  0.18637500  0.74863800  0.30974800  1
  O  O42  1  0.33419300  0.57876800  0.32614900  1
  O  O43  1  0.22071300  0.63668700  0.34046500  1
  O  O44  1  0.48417700  0.50358800  0.62823600  1
  O  O45  1  0.51411900  0.48336300  0.53151900  1
  O  O46  1  0.55092500  0.39267800  0.64395000  1
  O  O47  1  0.55843500  0.54452000  0.65196000  1
  O  O48  1  0.61728000  0.44194500  0.67220100  1
  O  O49  1  0.45913900  0.59335100  0.68549000  1
  O  O50  1  0.52030800  0.48420000  0.70259000  1
  O  O51  1  0.38055500  0.53940200  0.66037000  1
  O  O52  1  0.44508700  0.43363600  0.67883600  1
  O  O53  1  0.27832500  0.19317200  0.38393100  1
  O  O54  1  0.16186900  0.26142500  0.37303700  1
  O  O55  1  0.30467300  0.27881200  0.35637800  1
  O  O56  1  0.55664700  0.36978600  0.51808700  1
  O  O57  1  0.19033900  0.33394500  0.34367000  1
  O  O58  1  0.33947600  0.18463900  0.32248400  1
  O  O59  1  0.22205800  0.23297700  0.31206300  1
  O  O60  1  0.31757000  0.09390300  0.34935000  1
  O  O61  1  0.19667200  0.15056200  0.34284500  1
  O  O62  1  0.96634900  0.56133800  0.65385800  1
  O  O63  1  0.03850500  0.45007600  0.63905500  1
  O  O64  1  0.07609700  0.51507800  0.68623300  1
  O  O65  1  0.13504800  0.40042300  0.67393100  1
  O  O66  1  0.99994800  0.47018200  0.71242400  1
  O  O67  1  0.39763400  0.50805600  0.51013900  1
  O  O68  1  0.04209900  0.36240700  0.69484000  1
  O  O69  1  0.89660000  0.51815100  0.68292500  1
  O  O70  1  0.94827300  0.42238800  0.65975800  1
  O  O71  1  0.19876900  0.76048300  0.18450400  1
  O  O72  1  0.31140100  0.69097500  0.19871500  1
  O  O73  1  0.23631400  0.65238900  0.15398600  1
  O  O74  1  0.35236300  0.58905200  0.16605700  1
  O  O75  1  0.28535600  0.72608000  0.12532400  1
  O  O76  1  0.39632700  0.66925700  0.14114700  1
  O  O77  1  0.24205700  0.82892500  0.15556100  1
  O  O78  1  0.44502500  0.40764100  0.48880100  1
  O  O79  1  0.34571200  0.77168500  0.17523800  1
  O  O80  1  0.49443300  0.70183700  0.85851700  1
  O  O81  1  0.55321000  0.76282400  0.85044500  1
  O  O82  1  0.55540500  0.60305200  0.82625600  1
  O  O83  1  0.62761500  0.65216300  0.82312400  1
  O  O84  1  0.45820700  0.68693000  0.79715900  1
  O  O85  1  0.53395000  0.72741300  0.78780200  1
  O  O86  1  0.39209600  0.79880200  0.82864500  1
  O  O87  1  0.46475100  0.84271200  0.81774700  1
  O  O88  1  0.22862900  0.25319800  0.20956200  1
  O  O89  1  0.98557500  0.17692200  0.86064800  1
  O  O90  1  0.34541400  0.19108300  0.19843600  1
  O  O91  1  0.19517000  0.17258600  0.18481600  1
  O  O92  1  0.30917300  0.10841500  0.17184000  1
  O  O93  1  0.16225400  0.26757900  0.14959300  1
  O  O94  1  0.27699700  0.19447600  0.13778800  1
  O  O95  1  0.20426500  0.34817600  0.17550500  1
  O  O96  1  0.31790900  0.27986400  0.16168300  1
