# Generated by REPEAT Assigner based on pymatgen
data_DB0-m3_o7_o29_f0_nbo.sym.11
_audit_creation_date              2022-05-24
_audit_creation_method            REPEAT_Assigner
_cell_length_a                    35.546426
_cell_length_b                    35.546447
_cell_length_c                    55.270888
_cell_angle_alpha                 90.000000
_cell_angle_beta                  90.000000
_cell_angle_gamma                 90.000000
_cell_volume                      69837.483167
_symmetry_space_group_name_H-M    P1
_symmetry_Int_Tables_number       1
loop_
    _symmetry_equiv_pos_site_id
    _symmetry_equiv_pos_as_xyz
    1  x,y,z
loop_
    _atom_site_type_symbol
    _atom_site_label
    _atom_site_fract_x
    _atom_site_fract_y
    _atom_site_fract_z
    _atom_type_partial_charge
    C   C1    0.500864  0.926315  0.500010  0.806809
    C   C2    0.999999  0.499235  0.547396  0.566971
    C   C3    0.973945  0.519473  0.661785  0.422837
    C   C4    0.479792  0.026272  0.338164  0.422641
    C   C5    0.026427  0.520182  0.338163  0.421124
    C   C6    0.519215  0.973496  0.338250  0.422232
    C   C7    0.973648  0.480765  0.338257  0.421204
    C   C8    0.979795  0.473753  0.161836  0.422590
    C   C9    0.526322  0.979765  0.161833  0.422530
    C   C10   0.019217  0.526530  0.161751  0.422558
    C   C11   0.473548  0.019190  0.161747  0.421262
    C   C12   0.980471  0.525998  0.838218  0.422990
    C   C13   0.499016  0.999923  0.452612  0.553200
    C   C14   0.526578  0.020210  0.838210  0.419347
    C   C15   0.020209  0.473464  0.838216  0.419429
    C   C16   0.474042  0.980474  0.838219  0.423403
    C   C17   0.533650  0.995213  0.611480  -0.167621
    C   C18   0.005111  0.532632  0.611383  -0.172395
    C   C19   0.467297  0.005189  0.611379  -0.171464
    C   C20   0.995118  0.466282  0.611483  -0.168603
    C   C21   0.532551  0.004285  0.388640  -0.171601
    C   C22   0.004455  0.467410  0.388640  -0.173074
    C   C23   0.466024  0.995546  0.388522  -0.169951
    C   C24   0.000075  0.500933  0.452616  0.551874
    C   C25   0.995733  0.533940  0.388528  -0.170021
    C   C26   0.032552  0.495754  0.111360  -0.172308
    C   C27   0.504340  0.032532  0.111359  -0.173145
    C   C28   0.966022  0.504482  0.111478  -0.168733
    C   C29   0.495599  0.966005  0.111473  -0.169006
    C   C30   0.033659  0.504820  0.888519  -0.167521
    C   C31   0.505223  0.967304  0.888617  -0.171581
    C   C32   0.967308  0.494833  0.888621  -0.172250
    C   C33   0.495249  0.033657  0.888518  -0.167175
    C   C34   0.533803  0.995332  0.586550  -0.083307
    C   C35   0.999017  0.500119  0.047388  0.553238
    C   C36   0.004890  0.532616  0.586452  -0.090953
    C   C37   0.467314  0.004964  0.586448  -0.091053
    C   C38   0.995239  0.466130  0.586553  -0.085033
    C   C39   0.532512  0.004064  0.413570  -0.090893
    C   C40   0.004235  0.467444  0.413571  -0.090581
    C   C41   0.465848  0.995768  0.413453  -0.082452
    C   C42   0.995956  0.534110  0.413459  -0.083902
    C   C43   0.032513  0.495979  0.086429  -0.090403
    C   C44   0.504119  0.032497  0.086428  -0.089365
    C   C45   0.965847  0.504263  0.086547  -0.084018
    C   C46   0.499973  0.999006  0.047385  0.553489
    C   C47   0.495819  0.965833  0.086543  -0.083447
    C   C48   0.033811  0.504707  0.913449  -0.084221
    C   C49   0.505002  0.967320  0.913548  -0.090063
    C   C50   0.967324  0.495063  0.913553  -0.090420
    C   C51   0.495373  0.033809  0.913448  -0.083179
    C   C52   0.500602  0.000118  0.573894  0.043009
    C   C53   0.000037  0.499330  0.573897  0.043894
    C   C54   0.499126  0.999912  0.426114  0.045926
    C   C55   0.000090  0.500828  0.426118  0.047219
    C   C56   0.999127  0.500127  0.073886  0.046284
    C   C57   0.000707  0.499986  0.952607  0.566831
    C   C58   0.499965  0.999113  0.073883  0.045187
    C   C59   0.000611  0.499918  0.926106  0.042717
    C   C60   0.500159  0.000607  0.926103  0.042392
    C   C61   0.500432  0.000227  0.624000  0.124476
    C   C62   0.000140  0.499498  0.624003  0.126731
    C   C63   0.499342  0.999913  0.376004  0.127614
    C   C64   0.000088  0.500622  0.376007  0.130232
    C   C65   0.999342  0.500119  0.123996  0.128339
    C   C66   0.499967  0.999321  0.123993  0.128734
    C   C67   0.000441  0.499799  0.876001  0.125114
    C   C68   0.500098  0.000701  0.952604  0.565502
    C   C69   0.500259  0.000439  0.875998  0.124151
    C   C70   0.426430  0.500179  0.500638  0.678743
    C   C71   0.499771  0.426382  0.499584  0.676776
    C   C72   0.573633  0.499792  0.499532  0.680475
    C   C73   0.500291  0.573586  0.500586  0.675727
    C   C74   0.926428  0.999797  0.000417  0.677413
    C   C75   0.000225  0.926456  0.999416  0.678538
    C   C76   0.073633  0.000318  0.999417  0.676430
    C   C77   0.999835  0.073661  0.000418  0.679853
    C   C78   0.501551  0.673142  0.478813  -0.219574
    C   C79   0.477773  0.975314  0.737400  0.077383
    C   C80   0.326836  0.499609  0.478929  -0.220780
    C   C81   0.500211  0.326608  0.478222  -0.217346
    C   C82   0.673370  0.498590  0.478107  -0.216666
    C   C83   0.498583  0.326820  0.521350  -0.218727
    C   C84   0.326688  0.501309  0.522056  -0.216696
    C   C85   0.499649  0.673366  0.521937  -0.216764
    C   C86   0.673233  0.500565  0.521229  -0.220907
    C   C87   0.000545  0.173228  0.978655  -0.219553
    C   C88   0.826868  0.998562  0.978651  -0.219280
    C   C89   0.001296  0.826682  0.978063  -0.217976
    C   C90   0.025257  0.477141  0.737402  0.080671
    C   C91   0.173412  0.999632  0.978066  -0.217222
    C   C92   0.999590  0.826896  0.021189  -0.222296
    C   C93   0.826653  0.000261  0.021778  -0.217185
    C   C94   0.998566  0.173429  0.021777  -0.216454
    C   C95   0.173188  0.001605  0.021188  -0.220839
    C   C96   0.501445  0.634355  0.478846  -0.131051
    C   C97   0.365622  0.499488  0.478937  -0.129725
    C   C98   0.500356  0.365393  0.478096  -0.133045
    C   C99   0.634584  0.498675  0.478006  -0.131786
    C   C100  0.498719  0.365607  0.521321  -0.130182
    C   C101  0.522838  0.025301  0.737398  0.079773
    C   C102  0.365474  0.501198  0.522162  -0.131561
    C   C103  0.499544  0.634581  0.522068  -0.134985
    C   C104  0.634447  0.500649  0.521226  -0.131048
    C   C105  0.000661  0.134442  0.978684  -0.132055
    C   C106  0.865654  0.998703  0.978680  -0.129414
    C   C107  0.001216  0.865467  0.977932  -0.131985
    C   C108  0.134627  0.999531  0.977935  -0.134711
    C   C109  0.999501  0.865682  0.021157  -0.129131
    C   C110  0.865438  0.000411  0.021905  -0.133439
    C   C111  0.998684  0.134644  0.021903  -0.132790
    C   C112  0.073693  0.501038  0.500084  0.806056
    C   C113  0.975271  0.522208  0.737402  0.079164
    C   C114  0.134402  0.001503  0.021155  -0.130136
    C   C115  0.500435  0.614837  0.500498  0.054341
    C   C116  0.385179  0.500286  0.500578  0.049708
    C   C117  0.499611  0.385130  0.499669  0.051991
    C   C118  0.614885  0.499704  0.499589  0.049281
    C   C119  0.999729  0.114912  0.000333  0.051462
    C   C120  0.885177  0.999633  0.000332  0.051258
    C   C121  0.000316  0.885205  0.999503  0.049843
    C   C122  0.114884  0.000460  0.999504  0.053243
    C   C123  0.500649  0.692641  0.500334  0.297533
    C   C124  0.477244  0.024781  0.262550  0.077184
    C   C125  0.307374  0.500520  0.500464  0.296224
    C   C126  0.499328  0.307326  0.499824  0.295717
    C   C127  0.692689  0.499535  0.499694  0.298492
    C   C128  0.999494  0.192716  0.000178  0.295858
    C   C129  0.807373  0.999339  0.000176  0.296251
    C   C130  0.000485  0.807401  0.999666  0.299947
    C   C131  0.192688  0.000665  0.999668  0.298942
    C   C132  0.500722  0.732994  0.500252  -0.219932
    C   C133  0.267021  0.500639  0.500404  -0.216170
    C   C134  0.499199  0.266973  0.499899  -0.216116
    C   C135  0.024875  0.522778  0.262551  0.077835
    C   C136  0.733042  0.499450  0.499747  -0.220878
    C   C137  0.999365  0.233070  0.000103  -0.216940
    C   C138  0.767019  0.999206  0.000100  -0.216746
    C   C139  0.000561  0.767048  0.999748  -0.220847
    C   C140  0.233041  0.000733  0.999750  -0.220925
    C   C141  0.500765  0.766882  0.500193  -0.085389
    C   C142  0.233133  0.500733  0.500354  -0.092141
    C   C143  0.499101  0.233085  0.499950  -0.091277
    C   C144  0.766930  0.499382  0.499787  -0.083802
    C   C145  0.999258  0.266957  0.000053  -0.090788
    C   C146  0.522260  0.974761  0.262641  0.076623
    C   C147  0.733132  0.999104  0.000049  -0.090628
    C   C148  0.000615  0.733160  0.999808  -0.084925
    C   C149  0.266929  0.000772  0.999809  -0.084527
    C   C150  0.473154  0.826639  0.512316  -0.363254
    C   C151  0.173322  0.474095  0.513249  -0.363896
    C   C152  0.525738  0.173347  0.512992  -0.361953
    C   C153  0.826651  0.526925  0.512058  -0.358539
    C   C154  0.472190  0.173411  0.487019  -0.362258
    C   C155  0.173533  0.527646  0.487280  -0.365118
    C   C156  0.528454  0.826538  0.487908  -0.363301
    C   C157  0.974854  0.477765  0.262646  0.075456
    C   C158  0.826622  0.471629  0.487646  -0.359074
    C   C159  0.972315  0.326615  0.012986  -0.361913
    C   C160  0.673458  0.972186  0.012975  -0.362205
    C   C161  0.028339  0.673522  0.012092  -0.363868
    C   C162  0.326587  0.028454  0.012095  -0.363016
    C   C163  0.973037  0.673386  0.987686  -0.362675
    C   C164  0.673393  0.025738  0.987006  -0.361072
    C   C165  0.025861  0.326711  0.987012  -0.362036
    C   C166  0.326684  0.973158  0.987684  -0.363127
    C   C167  0.473243  0.865449  0.512518  0.333817
    C   C168  0.977280  0.475219  0.237451  0.077435
    C   C169  0.134512  0.474249  0.513426  0.325747
    C   C170  0.525596  0.134537  0.513248  0.325979
    C   C171  0.865461  0.526797  0.512342  0.327486
    C   C172  0.472208  0.134599  0.486788  0.326503
    C   C173  0.134722  0.527641  0.486970  0.326763
    C   C174  0.528408  0.865350  0.487617  0.337173
    C   C175  0.865434  0.471636  0.487436  0.333074
    C   C176  0.972308  0.365426  0.013216  0.325025
    C   C177  0.634647  0.972202  0.013205  0.326045
    C   C178  0.028318  0.634710  0.012383  0.337305
    C   C179  0.524820  0.977206  0.237447  0.077449
    C   C180  0.365399  0.028406  0.012386  0.337200
    C   C181  0.973152  0.634576  0.987483  0.331899
    C   C182  0.634583  0.025594  0.986749  0.325378
    C   C183  0.025695  0.365521  0.986755  0.325828
    C   C184  0.365494  0.973245  0.987481  0.333856
    C   C185  0.500837  0.885061  0.500045  -0.141656
    C   C186  0.114951  0.500980  0.500162  -0.131189
    C   C187  0.498875  0.114902  0.500022  -0.132235
    C   C188  0.885109  0.499186  0.499907  -0.135849
    C   C189  0.998962  0.385139  0.999982  -0.130705
    C   C190  0.022298  0.525236  0.237359  0.075870
    C   C191  0.614949  0.998871  0.999974  -0.131570
    C   C192  0.000760  0.614981  0.999955  -0.139742
    C   C193  0.385108  0.000836  0.999955  -0.141232
    C   C194  0.500793  0.807230  0.500136  0.260519
    C   C195  0.192785  0.500830  0.500296  0.269265
    C   C196  0.498999  0.192736  0.499995  0.265383
    C   C197  0.807278  0.499308  0.499833  0.255391
    C   C198  0.999136  0.307305  0.000009  0.265554
    C   C199  0.692783  0.998998  0.000002  0.265055
    C   C200  0.000664  0.692812  0.999866  0.260234
    C   C201  0.474802  0.022224  0.237356  0.076420
    C   C202  0.307277  0.000796  0.999866  0.259475
    C   C203  0.464502  0.886789  0.689509  0.122047
    C   C204  0.113754  0.463882  0.689483  0.131395
    C   C205  0.536060  0.113824  0.689495  0.130583
    C   C206  0.886724  0.535451  0.689524  0.119644
    C   C207  0.464133  0.113501  0.310300  0.130145
    C   C208  0.113635  0.535855  0.310274  0.128513
    C   C209  0.535132  0.886205  0.310534  0.131896
    C   C210  0.886334  0.464868  0.310565  0.127975
    C   C211  0.964133  0.386518  0.189691  0.130862
    C   C212  0.977742  0.524679  0.762601  0.077193
    C   C213  0.613546  0.964096  0.189701  0.129615
    C   C214  0.035142  0.613813  0.189477  0.132154
    C   C215  0.386253  0.035107  0.189459  0.130126
    C   C216  0.964509  0.613224  0.810482  0.122169
    C   C217  0.613841  0.036060  0.810491  0.132237
    C   C218  0.036057  0.386187  0.810517  0.130144
    C   C219  0.386802  0.964515  0.810500  0.121900
    C   C220  0.459325  0.886326  0.548933  0.080789
    C   C221  0.113716  0.462775  0.550211  0.084157
    C   C222  0.537074  0.113899  0.550070  0.083506
    C   C223  0.498848  0.073644  0.500010  0.806577
    C   C224  0.525308  0.022836  0.762596  0.079815
    C   C225  0.886194  0.540691  0.548794  0.081500
    C   C226  0.460701  0.113976  0.449968  0.082077
    C   C227  0.114258  0.539164  0.450115  0.082163
    C   C228  0.542344  0.886025  0.451159  0.083720
    C   C229  0.886254  0.457690  0.451014  0.085701
    C   C230  0.960790  0.386044  0.050036  0.080293
    C   C231  0.614022  0.960690  0.050025  0.081107
    C   C232  0.042269  0.614044  0.048841  0.084875
    C   C233  0.386076  0.042335  0.048844  0.085081
    C   C234  0.959247  0.613690  0.951069  0.080884
    C   C235  0.022805  0.474688  0.762601  0.078923
    C   C236  0.613947  0.037077  0.949928  0.082868
    C   C237  0.037158  0.386163  0.949933  0.084569
    C   C238  0.386369  0.959331  0.951066  0.082595
    C   C239  0.475318  0.977773  0.762601  0.078585
    C   C240  0.500305  0.000307  0.724825  -0.037846
    C   C241  0.000258  0.499667  0.724829  -0.039899
    C   C242  0.499715  0.999793  0.275169  -0.032738
    C   C243  0.999897  0.500300  0.275172  -0.034085
    C   C244  0.999746  0.500210  0.224831  -0.031892
    C   C245  0.499835  0.999680  0.224828  -0.032966
    C   C246  0.000280  0.499689  0.775175  -0.036978
    C   C247  0.926363  0.499131  0.499942  0.806630
    C   C248  0.500315  0.000305  0.775172  -0.038468
    C   C249  0.458549  0.947944  0.724466  -0.327981
    C   C250  0.052632  0.457924  0.724470  -0.330243
    C   C251  0.542045  0.052684  0.724467  -0.329730
    C   C252  0.947895  0.541423  0.724469  -0.328328
    C   C253  0.458063  0.052235  0.275431  -0.329656
    C   C254  0.052340  0.541951  0.275427  -0.329007
    C   C255  0.541382  0.947365  0.275609  -0.327922
    C   C256  0.947467  0.458636  0.275618  -0.324437
    C   C257  0.958088  0.447773  0.224570  -0.330161
    C   C258  0.998906  0.426397  0.999992  0.806195
    C   C259  0.552275  0.958025  0.224567  -0.330714
    C   C260  0.041412  0.552639  0.224392  -0.327180
    C   C261  0.447409  0.041349  0.224388  -0.326817
    C   C262  0.958530  0.552057  0.775535  -0.328290
    C   C263  0.552694  0.042043  0.775524  -0.329107
    C   C264  0.042020  0.447312  0.775533  -0.328620
    C   C265  0.447949  0.958553  0.775537  -0.328638
    C   C266  0.460195  0.946463  0.699676  0.353138
    C   C267  0.054095  0.459546  0.699680  0.355368
    C   C268  0.540407  0.054160  0.699677  0.354973
    C   C269  0.573691  0.998843  0.999985  0.806052
    C   C270  0.946403  0.539764  0.699680  0.352772
    C   C271  0.459693  0.053803  0.300220  0.353952
    C   C272  0.053929  0.540304  0.300215  0.352798
    C   C273  0.539598  0.945877  0.300395  0.351836
    C   C274  0.945998  0.460405  0.300406  0.348527
    C   C275  0.959707  0.446214  0.199780  0.353890
    C   C276  0.553846  0.959659  0.199778  0.355532
    C   C277  0.039615  0.554137  0.199606  0.350849
    C   C278  0.445924  0.039568  0.199601  0.349977
    C   C279  0.960188  0.553547  0.800324  0.353360
    C   C280  0.000815  0.573727  0.999989  0.805952
    C   C281  0.554175  0.040408  0.800313  0.354573
    C   C282  0.040396  0.445847  0.800323  0.354176
    C   C283  0.446473  0.960202  0.800327  0.353769
    C   C284  0.480025  0.973586  0.686939  -0.073011
    C   C285  0.026951  0.479347  0.686943  -0.074054
    C   C286  0.520599  0.027021  0.686941  -0.074128
    C   C287  0.973519  0.519925  0.686942  -0.073643
    C   C288  0.479413  0.026650  0.313006  -0.071369
    C   C289  0.026785  0.520577  0.313005  -0.070275
    C   C290  0.519780  0.973058  0.313094  -0.067721
    C   C291  0.426362  0.000861  0.999989  0.806991
    C   C292  0.973191  0.480214  0.313101  -0.066686
    C   C293  0.979424  0.473369  0.186994  -0.070307
    C   C294  0.526696  0.979382  0.186991  -0.071959
    C   C295  0.019792  0.526960  0.186907  -0.066537
    C   C296  0.473106  0.019751  0.186903  -0.066618
    C   C297  0.980021  0.526426  0.813061  -0.073054
    C   C298  0.527037  0.020603  0.813053  -0.073761
    C   C299  0.020594  0.472991  0.813060  -0.073574
    C   C300  0.473601  0.980032  0.813061  -0.074116
    C   C301  0.500308  0.000306  0.699624  -0.026500
    C   C302  0.500699  0.000054  0.547393  0.565876
    C   C303  0.000243  0.499648  0.699627  -0.024710
    C   C304  0.499638  0.999835  0.300368  -0.033402
    C   C305  0.999959  0.500362  0.300371  -0.032139
    C   C306  0.999655  0.500179  0.199632  -0.034844
    C   C307  0.499880  0.999606  0.199629  -0.033080
    C   C308  0.000297  0.499701  0.800376  -0.027177
    C   C309  0.500318  0.000312  0.800373  -0.025864
    C   C310  0.480465  0.974022  0.661782  0.422740
    C   C311  0.026475  0.479729  0.661787  0.418433
    C   C312  0.520204  0.026556  0.661784  0.419737
    H   H1    0.443089  0.925616  0.733034  0.195265
    H   H2    0.574601  0.942628  0.233186  0.195844
    H   H3    0.131832  0.455224  0.704859  0.013035
    H   H4    0.104814  0.493533  0.691930  -0.006124
    H   H5    0.129964  0.461665  0.672404  0.056104
    H   H6    0.544726  0.131895  0.704872  0.013398
    H   H7    0.506411  0.104881  0.691947  -0.005897
    H   H8    0.538264  0.130042  0.672418  0.056344
    H   H9    0.868678  0.544150  0.704906  0.016623
    H   H10   0.895646  0.505798  0.691987  -0.002995
    H   H11   0.870488  0.537650  0.672454  0.059469
    H   H12   0.455513  0.131511  0.294882  0.013736
    H   H13   0.056874  0.574986  0.232940  0.196235
    H   H14   0.493770  0.104497  0.307880  -0.005031
    H   H15   0.461935  0.129807  0.327343  0.056173
    H   H16   0.131632  0.544485  0.294852  0.014050
    H   H17   0.104628  0.506220  0.307848  -0.004742
    H   H18   0.129955  0.538041  0.327312  0.056842
    H   H19   0.543866  0.868158  0.295161  0.013020
    H   H20   0.505504  0.895180  0.308024  -0.005874
    H   H21   0.537230  0.869948  0.327602  0.056438
    H   H22   0.868275  0.456144  0.295195  0.014130
    H   H23   0.895309  0.494497  0.308059  -0.004616
    H   H24   0.425058  0.056807  0.232936  0.196143
    H   H25   0.870090  0.462761  0.327637  0.057242
    H   H26   0.955517  0.368505  0.205108  0.013486
    H   H27   0.993773  0.395517  0.192108  -0.005219
    H   H28   0.961926  0.370218  0.172647  0.056124
    H   H29   0.631553  0.955473  0.205120  0.013785
    H   H30   0.604544  0.993734  0.192123  -0.005022
    H   H31   0.629854  0.961900  0.172659  0.056462
    H   H32   0.043883  0.631854  0.204851  0.013062
    H   H33   0.005516  0.604835  0.191993  -0.005980
    H   H34   0.037230  0.630077  0.172412  0.056238
    H   H35   0.943069  0.574383  0.766966  0.195338
    H   H36   0.368204  0.043840  0.204831  0.013536
    H   H37   0.395226  0.005478  0.191969  -0.005223
    H   H38   0.369998  0.037207  0.172390  0.056753
    H   H39   0.955815  0.631273  0.795101  0.015901
    H   H40   0.994162  0.604297  0.808021  -0.003639
    H   H41   0.962312  0.629459  0.827553  0.058580
    H   H42   0.631909  0.044723  0.795111  0.012866
    H   H43   0.604896  0.006411  0.808040  -0.006413
    H   H44   0.630063  0.038266  0.827566  0.056018
    H   H45   0.044715  0.368110  0.795141  0.013373
    H   H46   0.575031  0.057483  0.766951  0.195598
    H   H47   0.006406  0.395128  0.808069  -0.005785
    H   H48   0.038271  0.369975  0.827596  0.056666
    H   H49   0.368745  0.955824  0.795122  0.015979
    H   H50   0.395724  0.994169  0.808041  -0.003548
    H   H51   0.370576  0.962310  0.827574  0.058745
    H   H52   0.489872  0.880066  0.549531  0.000459
    H   H53   0.444024  0.865784  0.560383  0.035637
    H   H54   0.454700  0.915169  0.555988  0.100251
    H   H55   0.119461  0.493434  0.549923  -0.004262
    H   H56   0.134676  0.448590  0.561939  0.035255
    H   H57   0.057458  0.424970  0.766963  0.195572
    H   H58   0.085062  0.458148  0.557577  0.101577
    H   H59   0.506422  0.119682  0.549774  -0.004063
    H   H60   0.551283  0.134875  0.561774  0.035315
    H   H61   0.541665  0.085260  0.557469  0.101754
    H   H62   0.879851  0.510160  0.549383  0.000147
    H   H63   0.865656  0.556043  0.560219  0.035484
    H   H64   0.915028  0.545240  0.555887  0.099732
    H   H65   0.491358  0.119734  0.450266  -0.003139
    H   H66   0.446515  0.134945  0.438248  0.034574
    H   H67   0.456093  0.085328  0.442586  0.104570
    H   H68   0.425619  0.943094  0.766972  0.195344
    H   H69   0.120051  0.508514  0.450417  -0.003193
    H   H70   0.135247  0.553375  0.438421  0.034315
    H   H71   0.085627  0.543742  0.442698  0.104484
    H   H72   0.511802  0.879735  0.450571  -0.000606
    H   H73   0.557660  0.865449  0.439743  0.033662
    H   H74   0.546943  0.914843  0.444056  0.102957
    H   H75   0.880045  0.488248  0.450421  -0.001439
    H   H76   0.865677  0.442427  0.439569  0.033571
    H   H77   0.915084  0.453019  0.443948  0.102221
    H   H78   0.991450  0.380307  0.049738  -0.002527
    H   H79   0.559702  0.990935  0.621187  0.147904
    H   H80   0.946619  0.365065  0.061757  0.034892
    H   H81   0.956162  0.414688  0.057418  0.105080
    H   H82   0.619778  0.991347  0.049729  -0.002870
    H   H83   0.634993  0.946503  0.061745  0.034754
    H   H84   0.585376  0.956077  0.057407  0.104883
    H   H85   0.011723  0.620312  0.049429  -0.001167
    H   H86   0.057573  0.634630  0.060257  0.033640
    H   H87   0.046889  0.585228  0.055944  0.102664
    H   H88   0.379785  0.011793  0.049430  -0.001005
    H   H89   0.365502  0.057651  0.060262  0.033288
    H   H90   0.009436  0.558747  0.621011  0.150372
    H   H91   0.414896  0.046931  0.055947  0.102605
    H   H92   0.989789  0.619973  0.950470  0.000403
    H   H93   0.943930  0.634220  0.939618  0.035852
    H   H94   0.954643  0.584843  0.944014  0.100183
    H   H95   0.619732  0.006425  0.950222  -0.003824
    H   H96   0.634923  0.051289  0.938225  0.035214
    H   H97   0.585308  0.041667  0.942528  0.102106
    H   H98   0.006510  0.380362  0.950230  -0.004389
    H   H99   0.051380  0.365195  0.938229  0.034942
    H   H100  0.041731  0.414804  0.942532  0.101501
    H   H101  0.441180  0.009507  0.621006  0.150195
    H   H102  0.380110  0.989879  0.950469  -0.000067
    H   H103  0.365827  0.944033  0.939614  0.035356
    H   H104  0.415212  0.954707  0.944010  0.099624
    H   H105  0.074973  0.442486  0.733039  0.195938
    H   H106  0.990834  0.440231  0.621189  0.148178
    H   H107  0.558758  0.008123  0.379029  0.150401
    H   H108  0.008284  0.441204  0.379027  0.150845
    H   H109  0.439901  0.991705  0.378818  0.149499
    H   H110  0.991895  0.560065  0.378827  0.149391
    H   H111  0.058758  0.491918  0.120971  0.150555
    H   H112  0.508180  0.058737  0.120971  0.150879
    H   H113  0.939899  0.508318  0.121182  0.149282
    H   H114  0.491756  0.939881  0.121176  0.149032
    H   H115  0.059710  0.509101  0.878812  0.147877
    H   H116  0.557487  0.075022  0.733037  0.195803
    H   H117  0.509537  0.941188  0.878989  0.150314
    H   H118  0.941192  0.490510  0.878994  0.150282
    H   H119  0.490970  0.059709  0.878812  0.147838
    H   H120  0.560176  0.991297  0.577190  0.114047
    H   H121  0.008895  0.558923  0.577009  0.115702
    H   H122  0.441007  0.008958  0.577003  0.115778
    H   H123  0.991203  0.439758  0.577191  0.114964
    H   H124  0.558878  0.007582  0.423026  0.114544
    H   H125  0.007742  0.441075  0.423025  0.114365
    H   H126  0.439402  0.992254  0.422816  0.112518
    H   H127  0.925572  0.556888  0.733038  0.195270
    H   H128  0.992445  0.560555  0.422824  0.112871
    H   H129  0.058879  0.492467  0.076973  0.114471
    H   H130  0.507637  0.058864  0.076974  0.114181
    H   H131  0.939401  0.507774  0.077184  0.112889
    H   H132  0.492304  0.939388  0.077178  0.112715
    H   H133  0.060184  0.508748  0.922810  0.114683
    H   H134  0.508996  0.941011  0.922992  0.115344
    H   H135  0.941018  0.491067  0.922997  0.115712
    H   H136  0.491341  0.060182  0.922810  0.113889
    H   H137  0.502334  0.688284  0.461862  0.158066
    H   H138  0.442668  0.074564  0.266812  0.195471
    H   H139  0.311664  0.498988  0.461986  0.158463
    H   H140  0.500796  0.311294  0.461331  0.157441
    H   H141  0.688654  0.497781  0.461209  0.157027
    H   H142  0.497893  0.311673  0.538301  0.157750
    H   H143  0.311399  0.502021  0.538954  0.157089
    H   H144  0.498935  0.688685  0.538823  0.157416
    H   H145  0.688411  0.501310  0.538168  0.158658
    H   H146  0.001276  0.188380  0.961707  0.158538
    H   H147  0.811721  0.997842  0.961701  0.157796
    H   H148  0.001995  0.811367  0.961174  0.157278
    H   H149  0.074662  0.557350  0.266805  0.195531
    H   H150  0.188731  0.998888  0.961180  0.157510
    H   H151  0.998952  0.811749  0.038141  0.158745
    H   H152  0.811339  0.000873  0.038668  0.157499
    H   H153  0.997741  0.188739  0.038665  0.157197
    H   H154  0.188331  0.002414  0.038139  0.158264
    H   H155  0.502158  0.619671  0.461739  0.136357
    H   H156  0.380275  0.498769  0.461819  0.136212
    H   H157  0.501058  0.379901  0.460926  0.137071
    H   H158  0.620045  0.497920  0.460848  0.137090
    H   H159  0.498126  0.380287  0.538432  0.136207
    H   H160  0.556840  0.925014  0.267061  0.196398
    H   H161  0.380009  0.501832  0.539323  0.136959
    H   H162  0.498741  0.620076  0.539237  0.137520
    H   H163  0.619798  0.501468  0.538344  0.136918
    H   H164  0.001492  0.119766  0.961575  0.137118
    H   H165  0.880335  0.998083  0.961570  0.136001
    H   H166  0.001862  0.879975  0.960762  0.137189
    H   H167  0.120123  0.998701  0.960766  0.137586
    H   H168  0.998789  0.880362  0.038266  0.136480
    H   H169  0.879946  0.001144  0.039074  0.137138
    H   H170  0.997938  0.120131  0.039071  0.137054
    H   H171  0.925109  0.443184  0.267073  0.195640
    H   H172  0.119718  0.002245  0.038262  0.136449
    H   H173  0.451532  0.811374  0.521947  0.183286
    H   H174  0.188546  0.453133  0.523490  0.183204
    H   H175  0.546697  0.188628  0.523200  0.183319
    H   H176  0.811359  0.548563  0.521655  0.183009
    H   H177  0.451294  0.188742  0.476789  0.183732
    H   H178  0.188922  0.548543  0.477086  0.184459
    H   H179  0.550060  0.811195  0.478315  0.183318
    H   H180  0.811306  0.450043  0.478016  0.182691
    H   H181  0.951430  0.311270  0.023217  0.183677
    H   H182  0.942695  0.425443  0.233188  0.195603
    H   H183  0.688790  0.951290  0.023205  0.183641
    H   H184  0.049936  0.688878  0.021685  0.183724
    H   H185  0.311246  0.050060  0.021690  0.183369
    H   H186  0.951405  0.688636  0.978056  0.183380
    H   H187  0.688674  0.046700  0.976800  0.182900
    H   H188  0.046830  0.311443  0.976803  0.183209
    H   H189  0.311417  0.951539  0.978052  0.183456
    H   H190  0.455812  0.868736  0.704889  0.015902
    H   H191  0.494157  0.895710  0.691965  -0.003615
    H   H192  0.462294  0.870560  0.672436  0.058716
    N   N1    0.500353  0.000277  0.649815  -0.103489
    N   N2    0.000193  0.499578  0.649818  -0.103638
    N   N3    0.499455  0.999896  0.350182  -0.107993
    N   N4    0.000058  0.500515  0.350185  -0.108278
    N   N5    0.999455  0.500133  0.149818  -0.109235
    N   N6    0.499947  0.999431  0.149815  -0.108174
    N   N7    0.000361  0.499746  0.850186  -0.103418
    N   N8    0.500301  0.000361  0.850183  -0.103701
    O   O1    0.533291  0.943905  0.500416  -0.722767
    O   O2    0.556063  0.031260  0.999333  -0.737995
    O   O3    0.968400  0.556079  0.000384  -0.736250
    O   O4    0.443988  0.968433  0.000382  -0.736619
    O   O5    0.033255  0.556159  0.999584  -0.722857
    O   O6    0.556097  0.966429  0.000673  -0.723238
    O   O7    0.966479  0.443968  0.000679  -0.723103
    O   O8    0.443953  0.033289  0.999584  -0.723041
    O   O9    0.533155  0.999036  0.536131  -0.651344
    O   O10   0.000985  0.531622  0.536026  -0.667223
    O   O11   0.468312  0.000993  0.536021  -0.666480
    O   O12   0.056125  0.533465  0.499378  -0.723457
    O   O13   0.998980  0.466780  0.536132  -0.652252
    O   O14   0.531411  0.999394  0.463984  -0.660700
    O   O15   0.999500  0.468536  0.463985  -0.660567
    O   O16   0.466547  0.000501  0.463873  -0.646473
    O   O17   0.000655  0.533399  0.463879  -0.645861
    O   O18   0.031412  0.500670  0.036016  -0.661013
    O   O19   0.499444  0.031402  0.036014  -0.661011
    O   O20   0.966549  0.499519  0.036126  -0.646432
    O   O21   0.500550  0.966539  0.036122  -0.646133
    O   O22   0.033162  0.501027  0.963870  -0.652132
    O   O23   0.466434  0.056050  0.499321  -0.723196
    O   O24   0.501038  0.968313  0.963975  -0.666533
    O   O25   0.968320  0.499025  0.963979  -0.666835
    O   O26   0.499081  0.033156  0.963868  -0.650800
    O   O27   0.461642  0.948008  0.648961  -0.493626
    O   O28   0.052462  0.460869  0.648967  -0.492867
    O   O29   0.539056  0.052550  0.648965  -0.492810
    O   O30   0.947929  0.538294  0.648965  -0.493402
    O   O31   0.461124  0.052461  0.350931  -0.494631
    O   O32   0.052627  0.538841  0.350927  -0.494125
    O   O33   0.537786  0.947337  0.351100  -0.493569
    O   O34   0.943929  0.466691  0.500365  -0.723284
    O   O35   0.947494  0.462191  0.351111  -0.493499
    O   O36   0.961124  0.447568  0.149068  -0.494623
    O   O37   0.552511  0.961097  0.149066  -0.494544
    O   O38   0.037784  0.552694  0.148901  -0.493736
    O   O39   0.447390  0.037764  0.148897  -0.493379
    O   O40   0.961652  0.552015  0.851039  -0.493866
    O   O41   0.552577  0.039062  0.851026  -0.492951
    O   O42   0.039066  0.447474  0.851036  -0.492746
    O   O43   0.448031  0.961654  0.851043  -0.493562
    O   O44   0.443980  0.501007  0.521507  -0.691473
    O   O45   0.531264  0.056015  0.500664  -0.737827
    O   O46   0.499030  0.444119  0.520403  -0.705463
    O   O47   0.555935  0.500671  0.520362  -0.705150
    O   O48   0.499394  0.556076  0.521467  -0.690234
    O   O49   0.444129  0.499294  0.479808  -0.703887
    O   O50   0.501028  0.555849  0.479767  -0.704449
    O   O51   0.556083  0.498967  0.478663  -0.691582
    O   O52   0.500674  0.443892  0.478703  -0.689647
    O   O53   0.943938  0.000734  0.021298  -0.689572
    O   O54   0.999340  0.944189  0.020234  -0.704780
    O   O55   0.055895  0.001089  0.020234  -0.704683
    O   O56   0.056039  0.468634  0.500718  -0.738297
    O   O57   0.999011  0.056145  0.021298  -0.691339
    O   O58   0.944166  0.999023  0.979599  -0.705324
    O   O59   0.000716  0.055929  0.979599  -0.706110
    O   O60   0.056123  0.999387  0.978535  -0.690242
    O   O61   0.001054  0.943972  0.978535  -0.691083
    O   O62   0.441020  0.918259  0.688187  -0.332715
    O   O63   0.082301  0.440375  0.688190  -0.334718
    O   O64   0.559568  0.082373  0.688189  -0.334814
    O   O65   0.918193  0.558932  0.688191  -0.332301
    O   O66   0.440574  0.082094  0.311659  -0.334054
    O   O67   0.468436  0.943941  0.499615  -0.736685
    O   O68   0.082229  0.559414  0.311650  -0.333744
    O   O69   0.558659  0.917633  0.311922  -0.335996
    O   O70   0.917762  0.441339  0.311936  -0.334402
    O   O71   0.940579  0.417930  0.188340  -0.334403
    O   O72   0.582137  0.940540  0.188339  -0.334494
    O   O73   0.058669  0.582386  0.188080  -0.335829
    O   O74   0.417682  0.058632  0.188075  -0.335088
    O   O75   0.941023  0.581759  0.811813  -0.332632
    O   O76   0.582391  0.059570  0.811798  -0.334940
    O   O77   0.059564  0.417639  0.811813  -0.334724
    O   O78   0.944014  0.531547  0.499567  -0.736662
    O   O79   0.418270  0.941031  0.811820  -0.332945
    O   O80   0.445989  0.884186  0.525190  -0.359858
    O   O81   0.115727  0.447905  0.526844  -0.356230
    O   O82   0.551949  0.115826  0.526701  -0.356852
    O   O83   0.884161  0.554035  0.525049  -0.358870
    O   O84   0.445815  0.115951  0.473332  -0.357793
    O   O85   0.116148  0.554047  0.473482  -0.357472
    O   O86   0.555682  0.883990  0.474905  -0.363655
    O   O87   0.884111  0.444351  0.474756  -0.363639
    O   O88   0.945904  0.384058  0.026672  -0.357096
    O   O89   0.031310  0.444048  0.999337  -0.738099
    O   O90   0.615999  0.945807  0.026660  -0.357378
    O   O91   0.055605  0.616087  0.025095  -0.364299
    O   O92   0.384041  0.055677  0.025099  -0.364082
    O   O93   0.945910  0.615821  0.974812  -0.359665
    O   O94   0.615872  0.051949  0.973297  -0.356423
    O   O95   0.052035  0.384248  0.973301  -0.357030
    O   O96   0.384228  0.945992  0.974807  -0.360601
    Zn  Zn1   0.542432  0.000139  0.499963  1.343560
    Zn  Zn2   0.499955  0.500016  0.472695  1.321257
    Zn  Zn3   0.000062  0.000027  0.027307  1.321583
    Zn  Zn4   0.999999  0.000090  0.972526  1.323401
    Zn  Zn5   0.999905  0.542660  0.500053  1.344275
    Zn  Zn6   0.457281  0.999825  0.500047  1.343847
    Zn  Zn7   0.000157  0.457509  0.499964  1.344242
    Zn  Zn8   0.042437  0.499932  0.000038  1.344152
    Zn  Zn9   0.500187  0.042428  0.000036  1.343762
    Zn  Zn10  0.957286  0.500186  0.999952  1.343819
    Zn  Zn11  0.499872  0.957278  0.999948  1.344057
    Zn  Zn12  0.500109  0.499953  0.527475  1.323306
