# generated using pymatgen
data_Cu3H60C66(NO14)2
_symmetry_space_group_name_H-M   'P 1'
_cell_length_a   21.23721200
_cell_length_b   21.22842700
_cell_length_c   46.67894500
_cell_angle_alpha   90.00000000
_cell_angle_beta   90.00000000
_cell_angle_gamma   90.00000000
_symmetry_Int_Tables_number   1
_chemical_formula_structural   Cu3H60C66(NO14)2
_chemical_formula_sum   'Cu12 H240 C264 N8 O112'
_cell_volume   21044.39035552
_cell_formula_units_Z   4
loop_
 _symmetry_equiv_pos_site_id
 _symmetry_equiv_pos_as_xyz
  1  'x, y, z'
loop_
 _atom_site_type_symbol
 _atom_site_label
 _atom_site_symmetry_multiplicity
 _atom_site_fract_x
 _atom_site_fract_y
 _atom_site_fract_z
 _atom_site_occupancy
  Cu  Cu1  1  0.99929400  0.99858500  0.02034100  1
  Cu  Cu2  1  0.43780900  0.99595700  0.50425500  1
  Cu  Cu3  1  0.00226700  0.43569800  0.50405100  1
  Cu  Cu4  1  0.56320800  0.00152400  0.50375400  1
  Cu  Cu5  1  0.49929400  0.49858500  0.52034100  1
  Cu  Cu6  1  0.99893600  0.99897100  0.96474100  1
  Cu  Cu7  1  0.49893600  0.49897100  0.46474100  1
  Cu  Cu8  1  0.49652600  0.06114500  0.00382200  1
  Cu  Cu9  1  0.93780900  0.49595700  0.00425500  1
  Cu  Cu10  1  0.50226700  0.93569800  0.00405100  1
  Cu  Cu11  1  0.06320800  0.50152400  0.00375400  1
  Cu  Cu12  1  0.99652600  0.56114500  0.50382200  1
  H  H1  1  0.18433000  0.99421200  0.04071700  1
  H  H2  1  0.92922600  0.19204100  0.02218000  1
  H  H3  1  0.10937600  0.61492700  0.22745500  1
  H  H4  1  0.88111500  0.60492100  0.72782700  1
  H  H5  1  0.40202700  0.88153800  0.72764000  1
  H  H6  1  0.11247900  0.39529300  0.72721400  1
  H  H7  1  0.60937600  0.11492700  0.72745500  1
  H  H8  1  0.47747600  0.90079300  0.14632000  1
  H  H9  1  0.10256900  0.48169400  0.14576800  1
  H  H10  1  0.51401400  0.09847200  0.14607100  1
  H  H11  1  0.90477700  0.51707800  0.14675500  1
  H  H12  1  0.97747600  0.40079300  0.64632000  1
  H  H13  1  0.80612300  0.92879100  0.02235500  1
  H  H14  1  0.60256900  0.98169400  0.64576800  1
  H  H15  1  0.01401400  0.59847200  0.64607100  1
  H  H16  1  0.40477700  0.01707800  0.64675500  1
  H  H17  1  0.47939200  0.89983600  0.09423400  1
  H  H18  1  0.10179300  0.48278000  0.09369600  1
  H  H19  1  0.51354100  0.09851100  0.09398900  1
  H  H20  1  0.90301100  0.51583300  0.09466500  1
  H  H21  1  0.97939200  0.39983600  0.59423400  1
  H  H22  1  0.60179300  0.98278000  0.59369600  1
  H  H23  1  0.01354100  0.59851100  0.59398900  1
  H  H24  1  0.07002400  0.80572200  0.02158800  1
  H  H25  1  0.40301100  0.01583300  0.59466500  1
  H  H26  1  0.80484400  0.70974400  0.80672700  1
  H  H27  1  0.75309500  0.67597100  0.77983900  1
  H  H28  1  0.83732300  0.79234300  0.77225700  1
  H  H29  1  0.75287300  0.79261900  0.77769200  1
  H  H30  1  0.78582400  0.75860300  0.74541400  1
  H  H31  1  0.30009500  0.79982000  0.80578000  1
  H  H32  1  0.33604100  0.74984600  0.77877900  1
  H  H33  1  0.21722900  0.83052300  0.77111400  1
  H  H34  1  0.21955800  0.74594100  0.77612100  1
  H  H35  1  0.69171100  0.56812800  0.52230200  1
  H  H36  1  0.25314500  0.78078700  0.74416300  1
  H  H37  1  0.19141200  0.29096500  0.80564500  1
  H  H38  1  0.24222800  0.32481500  0.77841100  1
  H  H39  1  0.15811600  0.20816900  0.77144400  1
  H  H40  1  0.24272600  0.20815900  0.77633300  1
  H  H41  1  0.20867200  0.24197400  0.74424800  1
  H  H42  1  0.71459500  0.19283600  0.80584800  1
  H  H43  1  0.67951100  0.24406700  0.77909800  1
  H  H44  1  0.79682100  0.16142000  0.77100300  1
  H  H45  1  0.79604000  0.24591200  0.77640400  1
  H  H46  1  0.42922600  0.69204100  0.52218000  1
  H  H47  1  0.76177000  0.21240500  0.74430100  1
  H  H48  1  0.30484400  0.20974400  0.30672700  1
  H  H49  1  0.25309500  0.17597100  0.27983900  1
  H  H50  1  0.33732300  0.29234300  0.27225700  1
  H  H51  1  0.25287300  0.29261900  0.27769200  1
  H  H52  1  0.28582400  0.25860300  0.24541400  1
  H  H53  1  0.80009500  0.29982000  0.30578000  1
  H  H54  1  0.83604100  0.24984600  0.27877900  1
  H  H55  1  0.71722900  0.33052300  0.27111400  1
  H  H56  1  0.71955800  0.24594100  0.27612100  1
  H  H57  1  0.30612300  0.42879100  0.52235500  1
  H  H58  1  0.75314500  0.28078700  0.24416300  1
  H  H59  1  0.69141200  0.79096500  0.30564500  1
  H  H60  1  0.74222800  0.82481500  0.27841100  1
  H  H61  1  0.65811600  0.70816900  0.27144400  1
  H  H62  1  0.74272600  0.70815900  0.27633300  1
  H  H63  1  0.70867200  0.74197400  0.24424800  1
  H  H64  1  0.21459500  0.69283600  0.30584800  1
  H  H65  1  0.17951100  0.74406700  0.27909800  1
  H  H66  1  0.29682100  0.66142000  0.27100300  1
  H  H67  1  0.29604000  0.74591200  0.27640400  1
  H  H68  1  0.57002400  0.30572200  0.52158800  1
  H  H69  1  0.26177000  0.71240500  0.24430100  1
  H  H70  1  0.22665600  0.80307400  0.92776300  1
  H  H71  1  0.16105300  0.76648800  0.94608500  1
  H  H72  1  0.30011900  0.73128400  0.95315400  1
  H  H73  1  0.24175500  0.68788400  0.93285200  1
  H  H74  1  0.23408800  0.69500700  0.97135700  1
  H  H75  1  0.19781000  0.22977300  0.92975700  1
  H  H76  1  0.23117000  0.16059600  0.94649200  1
  H  H77  1  0.27144100  0.29709600  0.95740200  1
  H  H78  1  0.31317200  0.23968300  0.93584600  1
  H  H79  1  0.29536400  0.06252800  0.03236200  1
  H  H80  1  0.30457800  0.22749300  0.97404700  1
  H  H81  1  0.78048500  0.19416900  0.92720800  1
  H  H82  1  0.83574500  0.23589800  0.94973200  1
  H  H83  1  0.69315300  0.25737800  0.94751700  1
  H  H84  1  0.75291300  0.30706300  0.93149500  1
  H  H85  1  0.74868500  0.29902900  0.97008100  1
  H  H86  1  0.80326600  0.77965100  0.92732500  1
  H  H87  1  0.76200800  0.83511400  0.94992900  1
  H  H88  1  0.74028000  0.69248700  0.94794500  1
  H  H89  1  0.69044800  0.75226300  0.93202500  1
  H  H90  1  0.93698300  0.29497200  0.03392300  1
  H  H91  1  0.69910500  0.74823100  0.97058700  1
  H  H92  1  0.72665600  0.30307400  0.42776300  1
  H  H93  1  0.66105300  0.26648800  0.44608500  1
  H  H94  1  0.80011900  0.23128400  0.45315400  1
  H  H95  1  0.74175500  0.18788400  0.43285200  1
  H  H96  1  0.73408800  0.19500700  0.47135700  1
  H  H97  1  0.69781000  0.72977300  0.42975700  1
  H  H98  1  0.73117000  0.66059600  0.44649200  1
  H  H99  1  0.77144100  0.79709600  0.45740200  1
  H  H100  1  0.81317200  0.73968300  0.43584600  1
  H  H101  1  0.70360200  0.93694000  0.03496300  1
  H  H102  1  0.80457800  0.72749300  0.47404700  1
  H  H103  1  0.28048500  0.69416900  0.42720800  1
  H  H104  1  0.33574500  0.73589800  0.44973200  1
  H  H105  1  0.19315300  0.75737800  0.44751700  1
  H  H106  1  0.25291300  0.80706300  0.43149500  1
  H  H107  1  0.24868500  0.79902900  0.47008100  1
  H  H108  1  0.30326600  0.27965100  0.42732500  1
  H  H109  1  0.26200800  0.33511400  0.44992900  1
  H  H110  1  0.24028000  0.19248700  0.44794500  1
  H  H111  1  0.19044800  0.25226300  0.43202500  1
  H  H112  1  0.00219700  0.18242800  0.04115600  1
  H  H113  1  0.06253400  0.70298700  0.03395900  1
  H  H114  1  0.19910500  0.24823100  0.47058700  1
  H  H115  1  0.13287300  0.98326400  0.89478000  1
  H  H116  1  0.20044500  0.02902000  0.88309800  1
  H  H117  1  0.06925100  0.08225000  0.89648800  1
  H  H118  1  0.09996000  0.06622900  0.86099000  1
  H  H119  1  0.13671300  0.12554900  0.88328500  1
  H  H120  1  0.02426500  0.22102700  0.88759100  1
  H  H121  1  0.10483500  0.23380100  0.89807700  1
  H  H122  1  0.00168700  0.33465000  0.89433600  1
  H  H123  1  0.06502400  0.32193700  0.86898600  1
  H  H124  1  0.79536400  0.56252800  0.53236200  1
  H  H125  1  0.08251500  0.34749500  0.90513800  1
  H  H126  1  0.74351000  0.01076200  0.88762400  1
  H  H127  1  0.79027700  0.07960300  0.89666800  1
  H  H128  1  0.64605900  0.06718000  0.89814200  1
  H  H129  1  0.69214800  0.11115900  0.87235400  1
  H  H130  1  0.68967500  0.13586900  0.90950100  1
  H  H131  1  0.98640300  0.74415100  0.88698800  1
  H  H132  1  0.91748200  0.79051000  0.89630600  1
  H  H133  1  0.93052300  0.64624800  0.89751500  1
  H  H134  1  0.88624500  0.69235000  0.87183600  1
  H  H135  1  0.43698300  0.79497200  0.53392300  1
  H  H136  1  0.86177100  0.68957300  0.90900900  1
  H  H137  1  0.63287300  0.48326400  0.39478000  1
  H  H138  1  0.70044500  0.52902000  0.38309800  1
  H  H139  1  0.56925100  0.58225000  0.39648800  1
  H  H140  1  0.59996000  0.56622900  0.36099000  1
  H  H141  1  0.63671300  0.62554900  0.38328500  1
  H  H142  1  0.52426500  0.72102700  0.38759100  1
  H  H143  1  0.60483500  0.73380100  0.39807700  1
  H  H144  1  0.50168700  0.83465000  0.39433600  1
  H  H145  1  0.56502400  0.82193700  0.36898600  1
  H  H146  1  0.20360200  0.43694000  0.53496300  1
  H  H147  1  0.58251500  0.84749500  0.40513800  1
  H  H148  1  0.24351000  0.51076200  0.38762400  1
  H  H149  1  0.29027700  0.57960300  0.39666800  1
  H  H150  1  0.14605900  0.56718000  0.39814200  1
  H  H151  1  0.19214800  0.61115900  0.37235400  1
  H  H152  1  0.18967500  0.63586900  0.40950100  1
  H  H153  1  0.48640300  0.24415100  0.38698800  1
  H  H154  1  0.41748200  0.29051000  0.39630600  1
  H  H155  1  0.43052300  0.14624800  0.39751500  1
  H  H156  1  0.38624500  0.19235000  0.37183600  1
  H  H157  1  0.56253400  0.20298700  0.53395900  1
  H  H158  1  0.36177100  0.18957300  0.40900900  1
  H  H159  1  0.28811100  0.98230500  0.04482100  1
  H  H160  1  0.01751600  0.28588000  0.04567700  1
  H  H161  1  0.71287800  0.01803700  0.04591800  1
  H  H162  1  0.98164400  0.71180800  0.04524900  1
  H  H163  1  0.78811100  0.48230500  0.54482100  1
  H  H164  1  0.81609700  0.00191000  0.04123800  1
  H  H165  1  0.51751600  0.78588000  0.54567700  1
  H  H166  1  0.21287800  0.51803700  0.54591800  1
  H  H167  1  0.48164400  0.21180800  0.54524900  1
  H  H168  1  0.20276800  0.89939500  0.01612100  1
  H  H169  1  0.09839600  0.20173400  0.01699500  1
  H  H170  1  0.79580300  0.09850000  0.01653100  1
  H  H171  1  0.90032500  0.79483800  0.01631200  1
  H  H172  1  0.70276800  0.39939500  0.51612100  1
  H  H173  1  0.59839600  0.70173400  0.51699500  1
  H  H174  1  0.29580300  0.59850000  0.51653100  1
  H  H175  1  0.99720700  0.81519900  0.04073700  1
  H  H176  1  0.40032500  0.29483800  0.51631200  1
  H  H177  1  0.30587700  0.89129400  0.01052200  1
  H  H178  1  0.10708100  0.30494100  0.01157700  1
  H  H179  1  0.69251800  0.10588400  0.01148800  1
  H  H180  1  0.89322900  0.69162100  0.01109800  1
  H  H181  1  0.80587700  0.39129400  0.51052200  1
  H  H182  1  0.60708100  0.80494100  0.51157700  1
  H  H183  1  0.19251800  0.60588400  0.51148800  1
  H  H184  1  0.39322900  0.19162100  0.51109800  1
  H  H185  1  0.19931600  0.07535100  0.97284100  1
  H  H186  1  0.68433000  0.49421200  0.54071700  1
  H  H187  1  0.92405800  0.19820700  0.97209000  1
  H  H188  1  0.80074100  0.92382200  0.97162800  1
  H  H189  1  0.07420700  0.80067600  0.97087200  1
  H  H190  1  0.69931600  0.57535100  0.47284100  1
  H  H191  1  0.42405800  0.69820700  0.47209000  1
  H  H192  1  0.30074100  0.42382200  0.47162800  1
  H  H193  1  0.57420700  0.30067600  0.47087200  1
  H  H194  1  0.30014000  0.08299600  0.98061000  1
  H  H195  1  0.91474300  0.29808900  0.98268400  1
  H  H196  1  0.70208400  0.91248800  0.98424000  1
  H  H197  1  0.50219700  0.68242800  0.54115600  1
  H  H198  1  0.08607400  0.70195900  0.98314000  1
  H  H199  1  0.80014000  0.58299600  0.48061000  1
  H  H200  1  0.41474300  0.79808900  0.48268400  1
  H  H201  1  0.20208400  0.41248800  0.48424000  1
  H  H202  1  0.58607400  0.20195900  0.48314000  1
  H  H203  1  0.31643200  0.02055800  0.95582900  1
  H  H204  1  0.97494500  0.31759700  0.95735600  1
  H  H205  1  0.67928000  0.97005100  0.95835200  1
  H  H206  1  0.02810200  0.67923800  0.95743800  1
  H  H207  1  0.81643200  0.52055800  0.45582900  1
  H  H208  1  0.31609700  0.50191000  0.54123800  1
  H  H209  1  0.47494500  0.81759700  0.45735600  1
  H  H210  1  0.17928000  0.47005100  0.45835200  1
  H  H211  1  0.52810200  0.17923800  0.45743800  1
  H  H212  1  0.30419600  0.90917000  0.97262700  1
  H  H213  1  0.08950200  0.30398800  0.97372000  1
  H  H214  1  0.69267300  0.08728600  0.97376100  1
  H  H215  1  0.91116100  0.69214500  0.97330300  1
  H  H216  1  0.80419600  0.40917000  0.47262700  1
  H  H217  1  0.58950200  0.80398800  0.47372000  1
  H  H218  1  0.19267300  0.58728600  0.47376100  1
  H  H219  1  0.49720700  0.31519900  0.54073700  1
  H  H220  1  0.41116100  0.19214500  0.47330300  1
  H  H221  1  0.89917900  0.48304900  0.86191100  1
  H  H222  1  0.52410300  0.89885900  0.86195100  1
  H  H223  1  0.09734000  0.51579400  0.86149500  1
  H  H224  1  0.48930400  0.09674500  0.86142500  1
  H  H225  1  0.39917900  0.98304900  0.36191100  1
  H  H226  1  0.02410300  0.39885900  0.36195100  1
  H  H227  1  0.59734000  0.01579400  0.36149500  1
  H  H228  1  0.98930400  0.59674500  0.36142500  1
  H  H229  1  0.89936600  0.48276300  0.91400600  1
  H  H230  1  0.19171100  0.06812800  0.02230200  1
  H  H231  1  0.52124300  0.89860800  0.91401900  1
  H  H232  1  0.09850700  0.51455800  0.91353100  1
  H  H233  1  0.48725200  0.09748600  0.91348300  1
  H  H234  1  0.39936600  0.98276300  0.41400600  1
  H  H235  1  0.02124300  0.39860800  0.41401900  1
  H  H236  1  0.59850700  0.01455800  0.41353100  1
  H  H237  1  0.98725200  0.59748600  0.41348300  1
  H  H238  1  0.38111500  0.10492100  0.22782700  1
  H  H239  1  0.90202700  0.38153800  0.22764000  1
  H  H240  1  0.61247900  0.89529300  0.22721400  1
  C  C1  1  0.01005400  0.11770400  0.99276300  1
  C  C2  1  0.00580200  0.49818300  0.23936600  1
  C  C3  1  0.50376800  0.99941100  0.64979400  1
  C  C4  1  0.99821300  0.49951600  0.85824800  1
  C  C5  1  0.50676600  0.99776600  0.85825300  1
  C  C6  1  0.49821300  0.99951600  0.35824800  1
  C  C7  1  0.00676600  0.49776600  0.35825300  1
  C  C8  1  0.41497200  0.07637400  0.23919800  1
  C  C9  1  0.93033900  0.41545500  0.23909400  1
  C  C10  1  0.57888400  0.92380800  0.23876000  1
  C  C11  1  0.08137600  0.58079600  0.23893900  1
  C  C12  1  0.91497200  0.57637400  0.73919800  1
  C  C13  1  0.99687100  0.50003800  0.73932700  1
  C  C14  1  0.43033900  0.91545500  0.73909400  1
  C  C15  1  0.07888400  0.42380800  0.73876000  1
  C  C16  1  0.58137600  0.08079600  0.73893900  1
  C  C17  1  0.94293900  0.49044500  0.87325200  1
  C  C18  1  0.51567600  0.94247800  0.87327100  1
  C  C19  1  0.05385800  0.50808000  0.87301200  1
  C  C20  1  0.49687700  0.05326600  0.87297800  1
  C  C21  1  0.44293900  0.99044500  0.37325200  1
  C  C22  1  0.01567600  0.44247800  0.37327100  1
  C  C23  1  0.55385800  0.00808000  0.37301200  1
  C  C24  1  0.50580200  0.99818300  0.73936600  1
  C  C25  1  0.99687700  0.55326600  0.37297800  1
  C  C26  1  0.45591700  0.03742200  0.19481100  1
  C  C27  1  0.96766900  0.45816600  0.19481200  1
  C  C28  1  0.53656400  0.96239100  0.19462700  1
  C  C29  1  0.04199600  0.53946900  0.19471400  1
  C  C30  1  0.95591700  0.53742200  0.69481100  1
  C  C31  1  0.46766900  0.95816600  0.69481200  1
  C  C32  1  0.03656400  0.46239100  0.69462700  1
  C  C33  1  0.54199600  0.03946900  0.69471400  1
  C  C34  1  0.94324300  0.49005000  0.90277600  1
  C  C35  1  0.49656000  0.99912700  0.09036500  1
  C  C36  1  0.51416300  0.94252600  0.90277800  1
  C  C37  1  0.05431700  0.50755800  0.90252000  1
  C  C38  1  0.49545100  0.05346800  0.90248500  1
  C  C39  1  0.44324300  0.99005000  0.40277600  1
  C  C40  1  0.01416300  0.44252600  0.40277800  1
  C  C41  1  0.55431700  0.00755800  0.40252000  1
  C  C42  1  0.99545100  0.55346800  0.40248500  1
  C  C43  1  0.99897700  0.49860900  0.91757800  1
  C  C44  1  0.50379000  0.99801300  0.91754900  1
  C  C45  1  0.49897700  0.99860900  0.41757800  1
  C  C46  1  0.00229900  0.49927800  0.09043300  1
  C  C47  1  0.00379000  0.49801300  0.41754900  1
  C  C48  1  0.49746400  0.99881300  0.05898700  1
  C  C49  1  0.00158600  0.49909700  0.05905800  1
  C  C50  1  0.99746400  0.49881300  0.55898700  1
  C  C51  1  0.50158600  0.99909700  0.55905800  1
  C  C52  1  0.37854300  0.99369100  0.00262900  1
  C  C53  1  0.00500500  0.37784700  0.00371700  1
  C  C54  1  0.62020800  0.00314200  0.00427000  1
  C  C55  1  0.99594500  0.61962700  0.00343700  1
  C  C56  1  0.87854300  0.49369100  0.50262900  1
  C  C57  1  0.99656000  0.49912700  0.59036500  1
  C  C58  1  0.50500500  0.87784700  0.50371700  1
  C  C59  1  0.12020800  0.50314200  0.50427000  1
  C  C60  1  0.49594500  0.11962700  0.50343700  1
  C  C61  1  0.50175200  0.99808000  0.94891400  1
  C  C62  1  0.99947000  0.49845300  0.94896400  1
  C  C63  1  0.00175200  0.49808000  0.44891400  1
  C  C64  1  0.49947000  0.99845300  0.44896400  1
  C  C65  1  0.48608100  0.94422300  0.13488100  1
  C  C66  1  0.05876400  0.49002300  0.13460100  1
  C  C67  1  0.50551700  0.05488100  0.13474300  1
  C  C68  1  0.50229900  0.99927800  0.59043300  1
  C  C69  1  0.94804400  0.50882600  0.13514900  1
  C  C70  1  0.98608100  0.44422300  0.63488100  1
  C  C71  1  0.55876400  0.99002300  0.63460100  1
  C  C72  1  0.00551700  0.55488100  0.63474300  1
  C  C73  1  0.44804400  0.00882600  0.63514900  1
  C  C74  1  0.48703400  0.94381200  0.10535700  1
  C  C75  1  0.05816700  0.49046200  0.10508000  1
  C  C76  1  0.50542900  0.05475000  0.10521600  1
  C  C77  1  0.94717600  0.50825600  0.10562500  1
  C  C78  1  0.98703400  0.44381200  0.60535700  1
  C  C79  1  0.91339900  0.57603400  0.76868200  1
  C  C80  1  0.55816700  0.99046200  0.60508000  1
  C  C81  1  0.00542900  0.55475000  0.60521600  1
  C  C82  1  0.44717600  0.00825600  0.60562500  1
  C  C83  1  0.03396900  0.45825800  0.81343200  1
  C  C84  1  0.54840000  0.03388000  0.81355200  1
  C  C85  1  0.96166400  0.54167500  0.81369300  1
  C  C86  1  0.46538600  0.96109800  0.81362300  1
  C  C87  1  0.53396900  0.95825800  0.31343200  1
  C  C88  1  0.04840000  0.53388000  0.31355200  1
  C  C89  1  0.46166400  0.04167500  0.31369300  1
  C  C90  1  0.43129400  0.91309800  0.76855400  1
  C  C91  1  0.96538600  0.46109800  0.31362300  1
  C  C92  1  0.95640200  0.53906500  0.78396800  1
  C  C93  1  0.46795200  0.95624600  0.78390700  1
  C  C94  1  0.03857900  0.46110800  0.78371600  1
  C  C95  1  0.54525000  0.03906100  0.78384300  1
  C  C96  1  0.45640200  0.03906500  0.28396800  1
  C  C97  1  0.96795200  0.45624600  0.28390700  1
  C  C98  1  0.53857900  0.96110800  0.28371600  1
  C  C99  1  0.04525000  0.53906100  0.28384300  1
  C  C100  1  0.99727900  0.50007800  0.76898900  1
  C  C101  1  0.08128900  0.42424500  0.76821400  1
  C  C102  1  0.50636100  0.99781400  0.76902300  1
  C  C103  1  0.49727900  0.00007800  0.26898900  1
  C  C104  1  0.00636100  0.49781400  0.26902300  1
  C  C105  1  0.86162900  0.61137300  0.78202700  1
  C  C106  1  0.79747600  0.70237000  0.78343700  1
  C  C107  1  0.79306500  0.76573600  0.76871700  1
  C  C108  1  0.39711000  0.86033300  0.78174200  1
  C  C109  1  0.30817000  0.79328400  0.78248900  1
  C  C110  1  0.24530700  0.78721300  0.76746900  1
  C  C111  1  0.13354900  0.38908500  0.78126300  1
  C  C112  1  0.88019300  0.00970300  0.99276800  1
  C  C113  1  0.58153700  0.08240700  0.76842100  1
  C  C114  1  0.19804000  0.29829600  0.78230700  1
  C  C115  1  0.20218000  0.23489600  0.76760000  1
  C  C116  1  0.61650000  0.13462200  0.78162400  1
  C  C117  1  0.70659500  0.20004800  0.78259100  1
  C  C118  1  0.76953000  0.20531300  0.76757200  1
  C  C119  1  0.36162900  0.11137300  0.28202700  1
  C  C120  1  0.29747600  0.20237000  0.28343700  1
  C  C121  1  0.29306500  0.26573600  0.26871700  1
  C  C122  1  0.89711000  0.36033300  0.28174200  1
  C  C123  1  0.80817000  0.29328400  0.28248900  1
  C  C124  1  0.41339900  0.07603400  0.26868200  1
  C  C125  1  0.74530700  0.28721300  0.26746900  1
  C  C126  1  0.63354900  0.88908500  0.28126300  1
  C  C127  1  0.69804000  0.79829600  0.28230700  1
  C  C128  1  0.70218000  0.73489600  0.26760000  1
  C  C129  1  0.11650000  0.63462200  0.28162400  1
  C  C130  1  0.20659500  0.70004800  0.28259100  1
  C  C131  1  0.26953000  0.70531300  0.26757200  1
  C  C132  1  0.19338500  0.87464300  0.97264000  1
  C  C133  1  0.21149000  0.77901900  0.94769700  1
  C  C134  1  0.24942600  0.71929000  0.95151200  1
  C  C135  1  0.93129400  0.41309800  0.26855400  1
  C  C136  1  0.12398100  0.19290900  0.97357300  1
  C  C137  1  0.22054600  0.21119900  0.94938500  1
  C  C138  1  0.28153000  0.24623900  0.95450600  1
  C  C139  1  0.80364600  0.12259500  0.97281300  1
  C  C140  1  0.78677800  0.21862300  0.94798600  1
  C  C141  1  0.74240200  0.27427000  0.94935800  1
  C  C142  1  0.87554600  0.80302400  0.97268500  1
  C  C143  1  0.77917200  0.78609100  0.94817800  1
  C  C144  1  0.72350300  0.74179300  0.94978800  1
  C  C145  1  0.69338500  0.37464300  0.47264000  1
  C  C146  1  0.58128900  0.92424500  0.26821400  1
  C  C147  1  0.71149000  0.27901900  0.44769700  1
  C  C148  1  0.74942600  0.21929000  0.45151200  1
  C  C149  1  0.62398100  0.69290900  0.47357300  1
  C  C150  1  0.72054600  0.71119900  0.44938500  1
  C  C151  1  0.78153000  0.74623900  0.45450600  1
  C  C152  1  0.30364600  0.62259500  0.47281300  1
  C  C153  1  0.28677800  0.71862300  0.44798600  1
  C  C154  1  0.24240200  0.77427000  0.44935800  1
  C  C155  1  0.37554600  0.30302400  0.47268500  1
  C  C156  1  0.27917200  0.28609100  0.44817800  1
  C  C157  1  0.08153700  0.58240700  0.26842100  1
  C  C158  1  0.22350300  0.24179300  0.44978800  1
  C  C159  1  0.20691400  0.00870900  0.93981300  1
  C  C160  1  0.15617500  0.02999100  0.89570300  1
  C  C161  1  0.11255200  0.07927000  0.88326700  1
  C  C162  1  0.99312600  0.21033000  0.94025700  1
  C  C163  1  0.05573100  0.25001400  0.90114700  1
  C  C164  1  0.05089900  0.31809000  0.89176500  1
  C  C165  1  0.78597000  0.99423600  0.94048400  1
  C  C166  1  0.74624000  0.05341600  0.90129500  1
  C  C167  1  0.68985100  0.09474000  0.89488300  1
  C  C168  1  0.45631300  0.03841800  0.22445300  1
  C  C169  1  0.00338600  0.78614600  0.93989800  1
  C  C170  1  0.94392300  0.74653200  0.90077200  1
  C  C171  1  0.90279900  0.68998600  0.89434300  1
  C  C172  1  0.70691400  0.50870900  0.43981300  1
  C  C173  1  0.65617500  0.52999100  0.39570300  1
  C  C174  1  0.61255200  0.57927000  0.38326700  1
  C  C175  1  0.49312600  0.71033000  0.44025700  1
  C  C176  1  0.55573100  0.75001400  0.40114700  1
  C  C177  1  0.55089900  0.81809000  0.39176500  1
  C  C178  1  0.28597000  0.49423600  0.44048400  1
  C  C179  1  0.96745000  0.45768100  0.22444100  1
  C  C180  1  0.24624000  0.55341600  0.40129500  1
  C  C181  1  0.18985100  0.59474000  0.39488300  1
  C  C182  1  0.50338600  0.28614600  0.43989800  1
  C  C183  1  0.44392300  0.24653200  0.40077200  1
  C  C184  1  0.40279900  0.18998600  0.39434300  1
  C  C185  1  0.53702600  0.96160500  0.22425300  1
  C  C186  1  0.04354500  0.53908400  0.22434700  1
  C  C187  1  0.95631300  0.53841800  0.72445300  1
  C  C188  1  0.98836000  0.87979100  0.99247200  1
  C  C189  1  0.46745000  0.95768100  0.72444100  1
  C  C190  1  0.03702600  0.46160500  0.72425300  1
  C  C191  1  0.54354500  0.03908400  0.72434700  1
  C  C192  1  0.20696500  0.01815600  0.02230800  1
  C  C193  1  0.97948500  0.20621400  0.02272900  1
  C  C194  1  0.79201800  0.97909100  0.02292000  1
  C  C195  1  0.01981500  0.79139000  0.02229300  1
  C  C196  1  0.70696500  0.51815600  0.52230800  1
  C  C197  1  0.47948500  0.70621400  0.52272900  1
  C  C198  1  0.29201800  0.47909100  0.52292000  1
  C  C199  1  0.11804700  0.98807100  0.99249800  1
  C  C200  1  0.51981500  0.29139000  0.52229300  1
  C  C201  1  0.27755900  0.01492700  0.02689800  1
  C  C202  1  0.98403700  0.27656700  0.02794400  1
  C  C203  1  0.72184100  0.98374500  0.02846700  1
  C  C204  1  0.01555400  0.72111200  0.02768600  1
  C  C205  1  0.77755900  0.51492700  0.52689800  1
  C  C206  1  0.48403700  0.77656700  0.52794400  1
  C  C207  1  0.22184100  0.48374500  0.52846700  1
  C  C208  1  0.51555400  0.22111200  0.52768600  1
  C  C209  1  0.21575600  0.92005000  0.99512200  1
  C  C210  1  0.51005400  0.61770400  0.49276300  1
  C  C211  1  0.07824200  0.21509000  0.99594300  1
  C  C212  1  0.78228800  0.07750400  0.99566800  1
  C  C213  1  0.92103500  0.78159500  0.99535500  1
  C  C214  1  0.71575600  0.42005000  0.49512200  1
  C  C215  1  0.57824200  0.71509000  0.49594300  1
  C  C216  1  0.28228800  0.57750400  0.49566800  1
  C  C217  1  0.42103500  0.28159500  0.49535500  1
  C  C218  1  0.21916300  0.02766800  0.97026900  1
  C  C219  1  0.97145400  0.21921300  0.97059100  1
  C  C220  1  0.77864500  0.97079100  0.97067900  1
  C  C221  1  0.38019300  0.50970300  0.49276800  1
  C  C222  1  0.02729500  0.77852700  0.97000200  1
  C  C223  1  0.71916300  0.52766800  0.47026900  1
  C  C224  1  0.47145400  0.71921300  0.47059100  1
  C  C225  1  0.27864500  0.47079100  0.47067900  1
  C  C226  1  0.52729500  0.27852700  0.47000200  1
  C  C227  1  0.18887300  0.98706100  0.99390400  1
  C  C228  1  0.01122600  0.18846400  0.99438200  1
  C  C229  1  0.80938900  0.01062800  0.99443900  1
  C  C230  1  0.98775500  0.80893500  0.99396500  1
  C  C231  1  0.68887300  0.48706100  0.49390400  1
  C  C232  1  0.48836000  0.37979100  0.49247200  1
  C  C233  1  0.51122600  0.68846400  0.49438200  1
  C  C234  1  0.30938900  0.51062800  0.49443900  1
  C  C235  1  0.48775500  0.30893500  0.49396500  1
  C  C236  1  0.30861600  0.99109000  0.99987400  1
  C  C237  1  0.00737700  0.30795300  0.00095600  1
  C  C238  1  0.69005000  0.00583100  0.00141100  1
  C  C239  1  0.99310000  0.68949800  0.00064500  1
  C  C240  1  0.80861600  0.49109000  0.49987400  1
  C  C241  1  0.50737700  0.80795300  0.50095600  1
  C  C242  1  0.19005000  0.50583100  0.50141100  1
  C  C243  1  0.61804700  0.48807100  0.49249800  1
  C  C244  1  0.49310000  0.18949800  0.50064500  1
  C  C245  1  0.28707400  0.92389600  0.99404800  1
  C  C246  1  0.07452100  0.28643300  0.99501900  1
  C  C247  1  0.71095500  0.07303200  0.99502800  1
  C  C248  1  0.92574000  0.71027200  0.99455300  1
  C  C249  1  0.78707400  0.42389600  0.49404800  1
  C  C250  1  0.57452100  0.78643300  0.49501900  1
  C  C251  1  0.21095500  0.57303200  0.49502800  1
  C  C252  1  0.42574000  0.21027200  0.49455300  1
  C  C253  1  0.28934700  0.03325300  0.97527100  1
  C  C254  1  0.49687100  0.00003800  0.23932700  1
  C  C255  1  0.96436900  0.28892700  0.97658600  1
  C  C256  1  0.70936600  0.96196200  0.97736900  1
  C  C257  1  0.03646000  0.70916400  0.97648500  1
  C  C258  1  0.78934700  0.53325300  0.47527100  1
  C  C259  1  0.46436900  0.78892700  0.47658600  1
  C  C260  1  0.20936600  0.46196200  0.47736900  1
  C  C261  1  0.53646000  0.20916400  0.47648500  1
  C  C262  1  0.49569500  0.99966800  0.14973700  1
  C  C263  1  0.00376800  0.49941100  0.14979400  1
  C  C264  1  0.99569500  0.49966800  0.64973700  1
  N  N1  1  0.49599700  0.99980200  0.18034200  1
  N  N2  1  0.00446400  0.49906000  0.18039200  1
  N  N3  1  0.99599700  0.49980200  0.68034200  1
  N  N4  1  0.50446400  0.99906000  0.68039200  1
  N  N5  1  0.99789800  0.49981700  0.82768200  1
  N  N6  1  0.50699500  0.99744600  0.82769900  1
  N  N7  1  0.49789800  0.99981700  0.32768200  1
  N  N8  1  0.00699500  0.49744600  0.32769900  1
  O  O1  1  0.02654800  0.08599800  0.01599100  1
  O  O2  1  0.90798200  0.98839700  0.96928700  1
  O  O3  1  0.04049700  0.24602400  0.92969900  1
  O  O4  1  0.82418600  0.96906800  0.92470100  1
  O  O5  1  0.74492900  0.03645900  0.92961300  1
  O  O6  1  0.02808800  0.82474100  0.92414900  1
  O  O7  1  0.96123300  0.74500900  0.92904300  1
  O  O8  1  0.73469100  0.46444700  0.42894400  1
  O  O9  1  0.66906300  0.54508600  0.42362000  1
  O  O10  1  0.46288700  0.67599100  0.42446500  1
  O  O11  1  0.54049700  0.74602400  0.42969900  1
  O  O12  1  0.32418600  0.46906800  0.42470100  1
  O  O13  1  0.00952100  0.90792700  0.96905500  1
  O  O14  1  0.24492900  0.53645900  0.42961300  1
  O  O15  1  0.52808800  0.32474100  0.42414900  1
  O  O16  1  0.46123300  0.24500900  0.42904300  1
  O  O17  1  0.08992100  0.00950600  0.96912800  1
  O  O18  1  0.48842900  0.58995300  0.46933500  1
  O  O19  1  0.40798200  0.48839700  0.46928700  1
  O  O20  1  0.50952100  0.40792700  0.46905500  1
  O  O21  1  0.58992100  0.50950600  0.46912800  1
  O  O22  1  0.06259300  0.41247100  0.82839800  1
  O  O23  1  0.59415600  0.06239400  0.82860700  1
  O  O24  1  0.93356700  0.58744400  0.82890900  1
  O  O25  1  0.91192000  0.02590500  0.01603300  1
  O  O26  1  0.41971600  0.93262000  0.82874500  1
  O  O27  1  0.56259300  0.91247100  0.32839800  1
  O  O28  1  0.09415600  0.56239400  0.32860700  1
  O  O29  1  0.43356700  0.08744400  0.32890900  1
  O  O30  1  0.91971600  0.43262000  0.32874500  1
  O  O31  1  0.41429200  0.07292600  0.18033400  1
  O  O32  1  0.93224100  0.41657000  0.18027600  1
  O  O33  1  0.57789200  0.92690700  0.17996400  1
  O  O34  1  0.07685300  0.58141600  0.18010100  1
  O  O35  1  0.91429200  0.57292600  0.68033400  1
  O  O36  1  0.97201000  0.91121900  0.01580700  1
  O  O37  1  0.43224100  0.91657000  0.68027600  1
  O  O38  1  0.07789200  0.42690700  0.67996400  1
  O  O39  1  0.57685300  0.08141600  0.68010100  1
  O  O40  1  0.49423300  0.05295600  0.04547900  1
  O  O41  1  0.94708200  0.49534100  0.04588000  1
  O  O42  1  0.50160200  0.94444800  0.04569900  1
  O  O43  1  0.05555000  0.50265000  0.04544000  1
  O  O44  1  0.99423300  0.55295600  0.54547900  1
  O  O45  1  0.44708200  0.99534100  0.54588000  1
  O  O46  1  0.00160200  0.44444800  0.54569900  1
  O  O47  1  0.08663800  0.97135400  0.01577700  1
  O  O48  1  0.55555000  0.00265000  0.54544000  1
  O  O49  1  0.40540600  0.04907000  0.00481100  1
  O  O50  1  0.94973900  0.40483900  0.00595200  1
  O  O51  1  0.59327800  0.94777200  0.00634300  1
  O  O52  1  0.05133000  0.59267800  0.00531700  1
  O  O53  1  0.90540600  0.54907000  0.50481100  1
  O  O54  1  0.44973900  0.90483900  0.50595200  1
  O  O55  1  0.09327800  0.44777200  0.50634300  1
  O  O56  1  0.55133000  0.09267800  0.50531700  1
  O  O57  1  0.41022000  0.94075500  0.00376000  1
  O  O58  1  0.52654800  0.58599800  0.51599100  1
  O  O59  1  0.05801600  0.40945700  0.00431200  1
  O  O60  1  0.58853000  0.05610700  0.00490500  1
  O  O61  1  0.94301200  0.58801100  0.00454400  1
  O  O62  1  0.91022000  0.44075500  0.50376000  1
  O  O63  1  0.55801600  0.90945700  0.50431200  1
  O  O64  1  0.08853000  0.55610700  0.50490500  1
  O  O65  1  0.44301200  0.08801100  0.50454400  1
  O  O66  1  0.49455000  0.05201800  0.96220500  1
  O  O67  1  0.94583600  0.49222100  0.96261000  1
  O  O68  1  0.50732900  0.94423700  0.96245900  1
  O  O69  1  0.41192000  0.52590500  0.51603300  1
  O  O70  1  0.05358700  0.50477300  0.96217700  1
  O  O71  1  0.99455000  0.55201800  0.46220500  1
  O  O72  1  0.44583600  0.99222100  0.46261000  1
  O  O73  1  0.00732900  0.44423700  0.46245900  1
  O  O74  1  0.55358700  0.00477300  0.46217700  1
  O  O75  1  0.82803500  0.58624200  0.79989200  1
  O  O76  1  0.84718400  0.66932700  0.77225100  1
  O  O77  1  0.42284200  0.82724300  0.79962600  1
  O  O78  1  0.33981100  0.84431900  0.77169800  1
  O  O79  1  0.16755000  0.41434000  0.79893200  1
  O  O80  1  0.47201000  0.41121900  0.51580700  1
  O  O81  1  0.14789500  0.33116100  0.77142000  1
  O  O82  1  0.59133500  0.16791300  0.79959800  1
  O  O83  1  0.67401200  0.14983800  0.77158100  1
  O  O84  1  0.32803500  0.08624200  0.29989200  1
  O  O85  1  0.34718400  0.16932700  0.27225100  1
  O  O86  1  0.92284200  0.32724300  0.29962600  1
  O  O87  1  0.83981100  0.34431900  0.27169800  1
  O  O88  1  0.66755000  0.91434000  0.29893200  1
  O  O89  1  0.64789500  0.83116100  0.27142000  1
  O  O90  1  0.09133500  0.66791300  0.29959800  1
  O  O91  1  0.58663800  0.47135400  0.51577700  1
  O  O92  1  0.17401200  0.64983800  0.27158100  1
  O  O93  1  0.15104200  0.88809700  0.95611800  1
  O  O94  1  0.22162300  0.81791900  0.97070200  1
  O  O95  1  0.11014500  0.15194600  0.95640600  1
  O  O96  1  0.18134500  0.22000700  0.97239700  1
  O  O97  1  0.84678800  0.10975300  0.95662200  1
  O  O98  1  0.77344700  0.17814100  0.97007100  1
  O  O99  1  0.88809000  0.84621500  0.95646300  1
  O  O100  1  0.81998300  0.77280600  0.97013700  1
  O  O101  1  0.65104200  0.38809700  0.45611800  1
  O  O102  1  0.98842900  0.08995300  0.96933500  1
  O  O103  1  0.72162300  0.31791900  0.47070200  1
  O  O104  1  0.61014500  0.65194600  0.45640600  1
  O  O105  1  0.68134500  0.72000700  0.47239700  1
  O  O106  1  0.34678800  0.60975300  0.45662200  1
  O  O107  1  0.27344700  0.67814100  0.47007100  1
  O  O108  1  0.38809000  0.34621500  0.45646300  1
  O  O109  1  0.31998300  0.27280600  0.47013700  1
  O  O110  1  0.23469100  0.96444700  0.92894400  1
  O  O111  1  0.16906300  0.04508600  0.92362000  1
  O  O112  1  0.96288700  0.17599100  0.92446500  1
