# Generated by REPEAT Assigner based on pymatgen
data_DB0-m3_o7_o29_f0_nbo.sym.69
_audit_creation_date              2022-05-24
_audit_creation_method            REPEAT_Assigner
_cell_length_a                    35.553499
_cell_length_b                    35.553533
_cell_length_c                    55.268049
_cell_angle_alpha                 90.000000
_cell_angle_beta                  90.000000
_cell_angle_gamma                 90.000000
_cell_volume                      69861.714341
_symmetry_space_group_name_H-M    P1
_symmetry_Int_Tables_number       1
loop_
    _symmetry_equiv_pos_site_id
    _symmetry_equiv_pos_as_xyz
    1  x,y,z
loop_
    _atom_site_type_symbol
    _atom_site_label
    _atom_site_fract_x
    _atom_site_fract_y
    _atom_site_fract_z
    _atom_type_partial_charge
    O   O1    0.531567  0.944034  0.500501  -0.716255
    O   O2    0.056001  0.531468  0.499455  -0.713298
    O   O3    0.468466  0.055930  0.499437  -0.713716
    O   O4    0.943998  0.468533  0.500557  -0.716444
    O   O5    0.533289  0.056145  0.500515  -0.694940
    O   O6    0.056106  0.466644  0.500550  -0.695829
    O   O7    0.466745  0.943819  0.499456  -0.698588
    O   O8    0.943893  0.533356  0.499494  -0.698954
    O   O9    0.033375  0.443914  0.999474  -0.695527
    O   O10   0.555942  0.031611  0.999415  -0.714262
    O   O11   0.966658  0.556122  0.000541  -0.699230
    O   O12   0.444064  0.968485  0.000524  -0.716340
    O   O13   0.031481  0.556021  0.999485  -0.716116
    O   O14   0.556175  0.966790  0.000512  -0.695663
    O   O15   0.968551  0.444014  0.000562  -0.713324
    O   O16   0.443830  0.033306  0.999459  -0.699089
    C   C1    0.499202  0.926300  0.499995  0.704631
    C   C2    0.073680  0.499074  0.499983  0.695970
    C   C3    0.500831  0.073664  0.499960  0.696712
    C   C4    0.926319  0.500927  0.500045  0.704376
    C   C5    0.000946  0.426337  0.000034  0.696803
    C   C6    0.573685  0.999252  0.999942  0.697545
    C   C7    0.999086  0.573698  0.999997  0.704758
    C   C8    0.426320  0.000844  0.000012  0.705470
    O   O17   0.533364  0.000802  0.536097  -0.695442
    O   O18   0.999237  0.531514  0.536040  -0.707775
    O   O19   0.468531  0.999137  0.536013  -0.709398
    O   O20   0.000766  0.466677  0.536142  -0.694377
    O   O21   0.531500  0.000908  0.463942  -0.710077
    O   O22   0.000843  0.468491  0.463988  -0.710894
    O   O23   0.466672  0.999081  0.463858  -0.697758
    O   O24   0.999152  0.533319  0.463885  -0.697672
    O   O25   0.031523  0.499162  0.036044  -0.710786
    O   O26   0.499168  0.031560  0.036003  -0.709384
    O   O27   0.966695  0.500849  0.036143  -0.698348
    O   O28   0.500851  0.966727  0.036107  -0.695884
    O   O29   0.033342  0.499268  0.963889  -0.694056
    O   O30   0.500918  0.968539  0.963952  -0.710341
    O   O31   0.968504  0.500792  0.963988  -0.707644
    O   O32   0.499073  0.033366  0.963848  -0.697558
    C   C9    0.500924  0.999942  0.547380  0.661504
    C   C10   0.999979  0.499127  0.547416  0.659112
    C   C11   0.499110  0.000025  0.452575  0.664862
    C   C12   0.000023  0.500874  0.452610  0.666070
    C   C13   0.999139  0.499977  0.047420  0.666247
    C   C14   0.499986  0.999176  0.047381  0.661411
    C   C15   0.000893  0.500057  0.952614  0.658042
    C   C16   0.500021  0.000921  0.952575  0.664620
    Zn  Zn1   0.542574  0.999942  0.499916  1.348248
    Zn  Zn2   0.000111  0.542560  0.500062  1.348871
    Zn  Zn3   0.457459  0.000022  0.500038  1.349543
    Zn  Zn4   0.999888  0.457441  0.499964  1.349067
    Zn  Zn5   0.042576  0.500131  0.000068  1.348365
    Zn  Zn6   0.500032  0.042606  0.000025  1.349981
    Zn  Zn7   0.957456  0.499904  0.999965  1.349477
    Zn  Zn8   0.499974  0.957490  0.999929  1.348759
    C   C17   0.478196  0.974753  0.737356  0.046519
    C   C18   0.025124  0.476673  0.737386  0.050198
    C   C19   0.522749  0.025762  0.737341  0.048633
    C   C20   0.975441  0.522693  0.737389  0.048006
    C   C21   0.475896  0.023978  0.262563  0.040603
    C   C22   0.024659  0.523269  0.262598  0.046139
    C   C23   0.523414  0.975718  0.262650  0.044353
    C   C24   0.975029  0.477177  0.262693  0.050888
    C   C25   0.976743  0.475342  0.237432  0.046232
    C   C26   0.525213  0.977513  0.237392  0.051288
    C   C27   0.022825  0.524981  0.237337  0.050608
    C   C28   0.474202  0.022065  0.237305  0.050897
    C   C29   0.977329  0.524583  0.762640  0.049048
    C   C30   0.524549  0.024082  0.762602  0.049465
    C   C31   0.023359  0.474908  0.762645  0.048900
    C   C32   0.476288  0.976564  0.762611  0.050784
    C   C33   0.500499  0.000225  0.724880  0.000386
    C   C34   0.000252  0.499651  0.724918  -0.000594
    C   C35   0.499626  0.999875  0.275076  0.008087
    C   C36   0.999871  0.500257  0.275114  0.000887
    C   C37   0.999751  0.500134  0.224916  0.001011
    C   C38   0.499731  0.999757  0.224880  -0.001934
    C   C39   0.000376  0.499777  0.775111  -0.001797
    C   C40   0.500391  0.000357  0.775075  -0.002581
    C   C41   0.458584  0.947750  0.724164  -0.182047
    C   C42   0.051504  0.456251  0.724183  -0.182746
    C   C43   0.542415  0.052699  0.724126  -0.182024
    C   C44   0.949000  0.543051  0.724195  -0.182737
    C   C45   0.454655  0.049758  0.275724  -0.176776
    C   C46   0.051023  0.543782  0.275760  -0.178374
    C   C47   0.544598  0.949998  0.275897  -0.180723
    C   C48   0.948726  0.456730  0.275948  -0.182039
    C   C49   0.956235  0.448973  0.224270  -0.178896
    C   C50   0.552210  0.957844  0.224231  -0.182694
    C   C51   0.043268  0.551288  0.224082  -0.182407
    C   C52   0.447259  0.041672  0.224059  -0.180911
    C   C53   0.956965  0.551020  0.775834  -0.182127
    C   C54   0.550272  0.045329  0.775805  -0.180379
    C   C55   0.043785  0.448533  0.775849  -0.182417
    C   C56   0.450511  0.955385  0.775815  -0.183983
    C   C57   0.459616  0.947409  0.699352  -0.032707
    C   C58   0.051774  0.457187  0.699369  -0.031138
    C   C59   0.541490  0.052912  0.699313  -0.030562
    C   C60   0.948608  0.541988  0.699383  -0.030215
    C   C61   0.455556  0.050143  0.300537  -0.037649
    C   C62   0.051354  0.542912  0.300573  -0.036205
    C   C63   0.543577  0.949712  0.300708  -0.033010
    C   C64   0.948494  0.457743  0.300759  -0.033911
    C   C65   0.957107  0.448642  0.199457  -0.035247
    C   C66   0.552532  0.958755  0.199418  -0.030832
    C   C67   0.042256  0.551518  0.199271  -0.033409
    C   C68   0.447026  0.040626  0.199248  -0.033069
    C   C69   0.958028  0.551414  0.800645  -0.031545
    C   C70   0.550552  0.044436  0.800619  -0.034079
    C   C71   0.042849  0.448264  0.800662  -0.029618
    C   C72   0.450120  0.956415  0.800626  -0.031811
    C   C73   0.480088  0.973959  0.687012  -0.130724
    C   C74   0.025751  0.478345  0.687042  -0.133303
    C   C75   0.521073  0.026297  0.686994  -0.135341
    C   C76   0.974568  0.520763  0.687048  -0.133282
    C   C77   0.477518  0.024850  0.312909  -0.127178
    C   C78   0.025446  0.521684  0.312947  -0.126848
    C   C79   0.521550  0.975049  0.312995  -0.128571
    C   C80   0.974444  0.479049  0.313040  -0.127586
    C   C81   0.978329  0.474553  0.187083  -0.127875
    C   C82   0.525968  0.979162  0.187046  -0.135601
    C   C83   0.020955  0.525563  0.186990  -0.128013
    C   C84   0.473628  0.020145  0.186961  -0.132013
    C   C85   0.979258  0.525459  0.812981  -0.133567
    C   C86   0.525208  0.022477  0.812950  -0.130638
    C   C87   0.021687  0.474285  0.812989  -0.135767
    C   C88   0.475406  0.978445  0.812954  -0.130670
    C   C89   0.500553  0.000160  0.699726  0.136362
    C   C90   0.000190  0.499587  0.699766  0.136708
    C   C91   0.499566  0.999926  0.300229  0.130339
    C   C92   0.999921  0.500328  0.300269  0.130190
    C   C93   0.999680  0.500083  0.199760  0.130536
    C   C94   0.499776  0.999689  0.199726  0.137072
    C   C95   0.000440  0.499840  0.800264  0.139000
    C   C96   0.500335  0.000426  0.800229  0.136541
    C   C97   0.480659  0.973957  0.661992  0.454089
    C   C98   0.025658  0.478817  0.662021  0.449787
    C   C99   0.520611  0.026170  0.661973  0.453819
    C   C100  0.974536  0.520158  0.662027  0.452731
    C   C101  0.477971  0.024863  0.337931  0.449514
    C   C102  0.025426  0.521265  0.337969  0.447970
    C   C103  0.520961  0.975123  0.338015  0.447625
    C   C104  0.974549  0.479629  0.338060  0.448882
    C   C105  0.978748  0.474573  0.162061  0.449339
    C   C106  0.525945  0.979604  0.162024  0.453702
    C   C107  0.020375  0.525458  0.161970  0.449436
    C   C108  0.473730  0.019553  0.161941  0.453325
    C   C109  0.979864  0.525493  0.838002  0.452216
    C   C110  0.525119  0.022029  0.837971  0.448345
    C   C111  0.021214  0.474379  0.838010  0.449775
    C   C112  0.475378  0.979039  0.837975  0.449284
    N   N1    0.500663  0.000032  0.649850  -0.123067
    N   N2    0.000066  0.499453  0.649888  -0.119639
    N   N3    0.499431  0.000012  0.350105  -0.117032
    N   N4    0.000006  0.500488  0.350143  -0.117678
    N   N5    0.999520  0.499996  0.149886  -0.119348
    N   N6    0.499855  0.999540  0.149850  -0.120581
    N   N7    0.000574  0.499968  0.850142  -0.117577
    N   N8    0.500219  0.000571  0.850105  -0.116158
    H   H1    0.442887  0.925278  0.732351  0.145984
    H   H2    0.073558  0.439963  0.732364  0.145863
    H   H3    0.558073  0.075216  0.732293  0.145461
    H   H4    0.926990  0.559387  0.732386  0.145468
    H   H5    0.437683  0.071260  0.267511  0.144388
    H   H6    0.073007  0.560131  0.267554  0.144299
    H   H7    0.561611  0.928463  0.267755  0.145315
    H   H8    0.926710  0.440332  0.267817  0.145379
    H   H9    0.939892  0.426986  0.232476  0.144397
    H   H10   0.574692  0.942191  0.232443  0.145510
    H   H11   0.059661  0.573306  0.232212  0.145644
    H   H12   0.424750  0.057373  0.232202  0.145332
    H   H13   0.940625  0.573026  0.767642  0.145351
    H   H14   0.571810  0.062296  0.767628  0.145000
    H   H15   0.060077  0.426481  0.767668  0.145523
    H   H16   0.429012  0.938369  0.767638  0.145824
    H   H17   0.443947  0.925921  0.689904  0.128722
    H   H18   0.072774  0.440884  0.689910  0.127606
    H   H19   0.557197  0.074353  0.689847  0.127835
    H   H20   0.927564  0.558244  0.689932  0.128081
    H   H21   0.438593  0.070653  0.309960  0.130145
    H   H22   0.072325  0.559302  0.309995  0.129708
    H   H23   0.560494  0.929240  0.310199  0.128587
    H   H24   0.927561  0.441406  0.310254  0.129219
    H   H25   0.940721  0.427667  0.190035  0.129399
    H   H26   0.574014  0.943043  0.189994  0.128356
    H   H27   0.058589  0.572454  0.189775  0.128974
    H   H28   0.425579  0.056289  0.189758  0.128722
    H   H29   0.941767  0.572455  0.810095  0.128681
    H   H30   0.571022  0.061401  0.810075  0.129051
    H   H31   0.059156  0.427269  0.810122  0.127275
    H   H32   0.429609  0.939500  0.810084  0.128785
    O   O33   0.461807  0.947359  0.649687  -0.531448
    O   O34   0.051704  0.459222  0.649707  -0.528558
    O   O35   0.539512  0.052710  0.649647  -0.530251
    O   O36   0.948434  0.539691  0.649723  -0.530477
    O   O37   0.457511  0.050282  0.350205  -0.530451
    O   O38   0.051361  0.541061  0.350246  -0.530271
    O   O39   0.541349  0.949742  0.350370  -0.529670
    O   O40   0.948651  0.459917  0.350425  -0.530849
    O   O41   0.958958  0.448633  0.149784  -0.530643
    O   O42   0.552533  0.960691  0.149750  -0.530501
    O   O43   0.040082  0.551359  0.149604  -0.530744
    O   O44   0.447179  0.038391  0.149585  -0.531172
    O   O45   0.960325  0.551593  0.850306  -0.530462
    O   O46   0.550490  0.042489  0.850285  -0.529820
    O   O47   0.040814  0.448337  0.850325  -0.528431
    O   O48   0.449951  0.958650  0.850290  -0.530355
    C   C113  0.534091  0.996267  0.611479  -0.159491
    C   C114  0.004362  0.532594  0.611429  -0.166114
    C   C115  0.467415  0.003633  0.611406  -0.163514
    C   C116  0.995612  0.466085  0.611519  -0.162762
    C   C117  0.532370  0.005686  0.388557  -0.164439
    C   C118  0.004992  0.467463  0.388596  -0.166208
    C   C119  0.466242  0.994412  0.388471  -0.158303
    C   C120  0.995089  0.533809  0.388494  -0.160587
    C   C121  0.032547  0.495012  0.111434  -0.165735
    C   C122  0.503582  0.032743  0.111396  -0.162658
    C   C123  0.966199  0.504905  0.111536  -0.161295
    C   C124  0.496223  0.966066  0.111490  -0.159664
    C   C125  0.033939  0.504430  0.888512  -0.162819
    C   C126  0.505768  0.967634  0.888565  -0.163860
    C   C127  0.967431  0.495670  0.888600  -0.164649
    C   C128  0.494488  0.033761  0.888462  -0.158164
    H   H33   0.560305  0.992935  0.621154  0.147282
    H   H34   0.008282  0.558788  0.621034  0.149515
    H   H35   0.441154  0.006994  0.621024  0.148634
    H   H36   0.991718  0.439951  0.621195  0.148209
    H   H37   0.558396  0.010566  0.378945  0.148963
    H   H38   0.009317  0.441337  0.378986  0.149638
    H   H39   0.440278  0.989520  0.378792  0.146728
    H   H40   0.990753  0.559861  0.378803  0.147444
    H   H41   0.058673  0.490692  0.121045  0.149277
    H   H42   0.506913  0.059015  0.121005  0.148435
    H   H43   0.940147  0.509238  0.121226  0.147647
    H   H44   0.492867  0.939863  0.121173  0.147223
    H   H45   0.060073  0.508328  0.878836  0.148491
    H   H46   0.510677  0.941607  0.878960  0.148802
    H   H47   0.941239  0.491744  0.878995  0.149224
    H   H48   0.489621  0.059723  0.878776  0.146702
    C   C129  0.534213  0.996407  0.586544  -0.080675
    C   C130  0.004153  0.532578  0.586493  -0.077833
    C   C131  0.467420  0.003448  0.586471  -0.079353
    C   C132  0.995779  0.465942  0.586584  -0.078953
    C   C133  0.532359  0.005526  0.413492  -0.080865
    C   C134  0.004857  0.467495  0.413532  -0.080272
    C   C135  0.466095  0.994579  0.413407  -0.082981
    C   C136  0.995231  0.533966  0.413429  -0.082456
    C   C137  0.032516  0.495145  0.086498  -0.081020
    C   C138  0.503451  0.032712  0.086460  -0.080054
    C   C139  0.966043  0.504761  0.086600  -0.081801
    C   C140  0.496418  0.965920  0.086555  -0.080513
    C   C141  0.034080  0.504263  0.913447  -0.078397
    C   C142  0.505557  0.967652  0.913501  -0.080380
    C   C143  0.967446  0.495879  0.913536  -0.078806
    C   C144  0.494604  0.033914  0.913398  -0.083243
    H   H49   0.560702  0.993371  0.577167  0.108469
    H   H50   0.007733  0.558940  0.577046  0.107183
    H   H51   0.440980  0.006478  0.577036  0.107780
    H   H52   0.992194  0.439519  0.577210  0.108185
    H   H53   0.558569  0.010111  0.422933  0.109342
    H   H54   0.008899  0.441198  0.422976  0.108853
    H   H55   0.439827  0.989989  0.422779  0.110536
    H   H56   0.991187  0.560333  0.422790  0.110137
    H   H57   0.058814  0.491108  0.077055  0.109141
    H   H58   0.506494  0.059144  0.077017  0.107929
    H   H59   0.939676  0.508801  0.077238  0.109951
    H   H60   0.493399  0.939421  0.077187  0.108560
    H   H61   0.060502  0.507853  0.922822  0.107951
    H   H62   0.510131  0.941446  0.922948  0.109022
    H   H63   0.941084  0.492296  0.922982  0.107462
    H   H64   0.489999  0.060186  0.922763  0.110643
    C   C145  0.500850  0.999924  0.573895  0.033615
    C   C146  0.999964  0.499219  0.573928  0.033319
    C   C147  0.499188  0.000050  0.426061  0.032080
    C   C148  0.000042  0.500777  0.426094  0.032521
    C   C149  0.999233  0.499954  0.073936  0.032382
    C   C150  0.499952  0.999271  0.073895  0.034204
    C   C151  0.000804  0.500074  0.926102  0.034003
    C   C152  0.500059  0.000827  0.926061  0.032235
    O   O49   0.444148  0.499104  0.520319  -0.705269
    O   O50   0.500861  0.443897  0.521382  -0.689889
    O   O51   0.556081  0.499131  0.521406  -0.689582
    O   O52   0.500860  0.555832  0.520344  -0.705255
    O   O53   0.443937  0.500698  0.478614  -0.689960
    O   O54   0.499004  0.556084  0.478643  -0.690586
    O   O55   0.555870  0.501033  0.479707  -0.705251
    O   O56   0.499312  0.444150  0.479677  -0.704876
    O   O57   0.944137  0.999279  0.020292  -0.704407
    O   O58   0.000699  0.943923  0.021366  -0.689780
    O   O59   0.056070  0.999010  0.021400  -0.690619
    O   O60   0.000996  0.055857  0.020327  -0.705300
    O   O61   0.943954  0.000875  0.978587  -0.689619
    O   O62   0.999172  0.056115  0.978626  -0.690390
    O   O63   0.055887  0.000914  0.979700  -0.704534
    O   O64   0.999183  0.944180  0.979660  -0.704846
    C   C153  0.500722  0.999969  0.624024  0.182074
    C   C154  0.000005  0.499378  0.624059  0.183362
    C   C155  0.499346  0.000043  0.375932  0.182160
    C   C156  0.000034  0.500588  0.375966  0.185268
    C   C157  0.999421  0.499966  0.124063  0.186415
    C   C158  0.499887  0.999449  0.124024  0.180528
    C   C159  0.000647  0.500031  0.875971  0.180972
    C   C160  0.500155  0.000655  0.875932  0.181022
    C   C161  0.426425  0.499849  0.499495  0.677398
    C   C162  0.500087  0.426406  0.500492  0.676853
    C   C163  0.573592  0.500138  0.500528  0.676269
    C   C164  0.499936  0.573574  0.499530  0.676605
    C   C165  0.926428  0.000070  0.999464  0.675863
    C   C166  0.999894  0.926434  0.000476  0.676386
    C   C167  0.073595  0.999973  0.000525  0.676017
    C   C168  0.000135  0.073602  0.999514  0.677725
    Zn  Zn9   0.499969  0.500003  0.527403  1.324311
    Zn  Zn10  0.500052  0.499982  0.472619  1.324203
    Zn  Zn11  0.999957  0.000031  0.027387  1.324351
    Zn  Zn12  0.000070  0.000010  0.972603  1.323787
    C   C169  0.496814  0.673317  0.478273  -0.227299
    C   C170  0.326699  0.498812  0.478115  -0.212476
    C   C171  0.500981  0.326896  0.478692  -0.216792
    C   C172  0.673119  0.503485  0.478860  -0.232073
    C   C173  0.499369  0.326654  0.521826  -0.211237
    C   C174  0.326887  0.500369  0.521249  -0.217593
    C   C175  0.502919  0.673090  0.521242  -0.232642
    C   C176  0.673324  0.497328  0.521826  -0.228986
    C   C177  0.997574  0.173359  0.978250  -0.219285
    C   C178  0.826710  0.999207  0.978065  -0.211351
    C   C179  0.000659  0.826918  0.978684  -0.224051
    C   C180  0.173132  0.003166  0.978873  -0.231615
    C   C181  0.998600  0.826690  0.021811  -0.219357
    C   C182  0.826882  0.000763  0.021200  -0.216796
    C   C183  0.003257  0.173105  0.021242  -0.222860
    C   C184  0.173316  0.997007  0.021839  -0.227717
    H   H65   0.494357  0.688657  0.461461  0.158766
    H   H66   0.311378  0.498130  0.461228  0.151162
    H   H67   0.501669  0.311743  0.461743  0.152152
    H   H68   0.688289  0.505984  0.461987  0.160512
    H   H69   0.498725  0.311311  0.538705  0.151373
    H   H70   0.311712  0.500975  0.538192  0.152620
    H   H71   0.505337  0.688252  0.538123  0.160961
    H   H72   0.688655  0.494908  0.538644  0.159922
    H   H73   0.995349  0.188708  0.961428  0.155300
    H   H74   0.811394  0.998537  0.961176  0.150807
    H   H75   0.001464  0.811758  0.961739  0.156492
    H   H76   0.188311  0.005657  0.962003  0.160002
    H   H77   0.997712  0.811351  0.038687  0.155313
    H   H78   0.811702  0.001380  0.038140  0.152929
    H   H79   0.005569  0.188255  0.038133  0.155737
    H   H80   0.188639  0.994578  0.038659  0.159782
    C   C185  0.496917  0.634546  0.478132  -0.128325
    C   C186  0.365471  0.498970  0.477992  -0.133620
    C   C187  0.500880  0.365670  0.478731  -0.130600
    C   C188  0.634345  0.503312  0.478877  -0.125541
    C   C189  0.499384  0.365426  0.521966  -0.135234
    C   C190  0.365661  0.500411  0.521229  -0.130548
    C   C191  0.502884  0.634316  0.521209  -0.125663
    C   C192  0.634552  0.497292  0.521950  -0.128639
    C   C193  0.997522  0.134587  0.978108  -0.132454
    C   C194  0.865483  0.999313  0.977949  -0.135231
    C   C195  0.000700  0.865692  0.978720  -0.128800
    C   C196  0.134359  0.003037  0.978885  -0.124890
    C   C197  0.998771  0.865461  0.021949  -0.131182
    C   C198  0.865656  0.000753  0.021185  -0.131844
    C   C199  0.003082  0.134332  0.021206  -0.129959
    C   C200  0.134543  0.997015  0.021958  -0.129293
    H   H81   0.494484  0.620042  0.461026  0.136855
    H   H82   0.379989  0.498378  0.460824  0.137767
    H   H83   0.501519  0.380361  0.461625  0.137650
    H   H84   0.619666  0.505736  0.461833  0.136027
    H   H85   0.498719  0.379922  0.539141  0.137988
    H   H86   0.380330  0.501079  0.538342  0.137897
    H   H87   0.505336  0.619628  0.538248  0.136152
    H   H88   0.620039  0.494788  0.539049  0.136435
    H   H89   0.995206  0.120095  0.960991  0.137304
    H   H90   0.880007  0.998696  0.960784  0.138419
    H   H91   0.001570  0.880379  0.961617  0.137021
    H   H92   0.119690  0.005486  0.961838  0.135887
    H   H93   0.997979  0.879963  0.039119  0.137140
    H   H94   0.880319  0.001395  0.038302  0.137446
    H   H95   0.005314  0.119635  0.038255  0.137351
    H   H96   0.120020  0.994534  0.039054  0.136830
    C   C201  0.499914  0.614811  0.499626  0.047041
    C   C202  0.385187  0.499742  0.499574  0.046277
    C   C203  0.500115  0.385169  0.500394  0.047429
    C   C204  0.614829  0.500248  0.500450  0.047157
    C   C205  0.000244  0.114839  0.999612  0.047753
    C   C206  0.885190  0.000053  0.999534  0.048451
    C   C207  0.999790  0.885197  0.000379  0.047162
    C   C208  0.114831  0.000001  0.000455  0.047198
    C   C209  0.499848  0.692559  0.499801  0.325993
    C   C210  0.307435  0.499540  0.499717  0.311927
    C   C211  0.500199  0.307417  0.500215  0.309553
    C   C212  0.692577  0.500460  0.500308  0.328025
    C   C213  0.000474  0.192589  0.999790  0.318264
    C   C214  0.807438  0.999958  0.999665  0.310857
    C   C215  0.999576  0.807446  0.000204  0.317402
    C   C216  0.192580  0.000120  0.000324  0.326836
    C   C217  0.499780  0.732856  0.499886  -0.266875
    C   C218  0.267134  0.499444  0.499787  -0.254540
    C   C219  0.500274  0.267117  0.500127  -0.251276
    C   C220  0.732874  0.500561  0.500239  -0.269655
    C   C221  0.000584  0.232888  0.999877  -0.260658
    C   C222  0.767138  0.999870  0.999730  -0.253931
    C   C223  0.999472  0.767148  0.000120  -0.259312
    C   C224  0.232877  0.000218  0.000259  -0.270427
    C   C225  0.499700  0.766725  0.499939  0.135510
    C   C226  0.233264  0.499369  0.499837  0.129318
    C   C227  0.500353  0.233246  0.500064  0.126747
    C   C228  0.766744  0.500637  0.500190  0.138716
    C   C229  0.000663  0.266758  0.999937  0.133700
    C   C230  0.733267  0.999779  0.999778  0.128220
    C   C231  0.999390  0.733278  0.000064  0.130770
    C   C232  0.266746  0.000314  0.000207  0.139696
    C   C233  0.466099  0.826573  0.497026  0.250131
    C   C234  0.173367  0.465630  0.498156  0.252882
    C   C235  0.534145  0.173395  0.498229  0.253332
    C   C236  0.826626  0.534164  0.497152  0.249433
    C   C237  0.466904  0.173188  0.501742  0.247364
    C   C238  0.173249  0.532873  0.501653  0.244086
    C   C239  0.532930  0.826777  0.502956  0.241002
    C   C240  0.826761  0.467336  0.503097  0.246207
    C   C241  0.967160  0.326773  0.998199  0.250802
    C   C242  0.673419  0.965964  0.998100  0.255506
    C   C243  0.032690  0.673263  0.997088  0.241148
    C   C244  0.326575  0.033922  0.997149  0.248022
    C   C245  0.965838  0.673386  0.002917  0.248000
    C   C246  0.673205  0.033207  0.001596  0.242771
    C   C247  0.034388  0.326648  0.001819  0.253934
    C   C248  0.326816  0.967094  0.003093  0.244408
    C   C249  0.466100  0.865399  0.497227  -0.319918
    C   C250  0.134539  0.465698  0.498369  -0.322278
    C   C251  0.534121  0.134567  0.498385  -0.322432
    C   C252  0.865454  0.534113  0.497309  -0.320816
    C   C253  0.467161  0.134361  0.501538  -0.317485
    C   C254  0.134422  0.532659  0.501507  -0.317330
    C   C255  0.532685  0.865605  0.502778  -0.315379
    C   C256  0.865587  0.467531  0.502875  -0.318196
    C   C257  0.967368  0.365599  0.998404  -0.319888
    C   C258  0.634592  0.965975  0.998318  -0.322849
    C   C259  0.032490  0.634437  0.997259  -0.316360
    C   C260  0.365403  0.033929  0.997291  -0.317902
    C   C261  0.965888  0.634558  0.002717  -0.320731
    C   C262  0.634378  0.032937  0.001455  -0.316403
    C   C263  0.034318  0.365477  0.001658  -0.323483
    C   C264  0.365642  0.967347  0.002857  -0.317139
    H   H97   0.439890  0.880290  0.494805  0.158483
    H   H98   0.119612  0.439336  0.496908  0.159071
    H   H99   0.560500  0.119677  0.496900  0.158830
    H   H100  0.880377  0.560301  0.494868  0.158445
    H   H101  0.440874  0.119308  0.503011  0.159176
    H   H102  0.119407  0.558966  0.502992  0.159512
    H   H103  0.558800  0.880661  0.505203  0.158458
    H   H104  0.880611  0.441397  0.505293  0.159238
    H   H105  0.941067  0.380618  0.996889  0.159385
    H   H106  0.619705  0.939591  0.996860  0.159452
    H   H107  0.058633  0.619417  0.994870  0.158776
    H   H108  0.380282  0.060140  0.994846  0.157972
    H   H109  0.939688  0.619633  0.005100  0.158932
    H   H110  0.619321  0.059221  0.002941  0.159168
    H   H111  0.060671  0.380403  0.003183  0.159026
    H   H112  0.380710  0.941236  0.005269  0.158889
    C   C265  0.499331  0.885053  0.500004  0.114466
    C   C266  0.114929  0.499142  0.499953  0.118527
    C   C267  0.500701  0.114913  0.499956  0.117614
    C   C268  0.885071  0.500858  0.500077  0.116151
    C   C269  0.000878  0.385089  0.000037  0.119103
    C   C270  0.614933  0.999391  0.999906  0.117223
    C   C271  0.999153  0.614946  0.999986  0.115276
    C   C272  0.385073  0.000703  0.000052  0.113753
    C   C273  0.499576  0.807154  0.499982  -0.238730
    C   C274  0.192833  0.499288  0.499887  -0.236872
    C   C275  0.500466  0.192816  0.500004  -0.237362
    C   C276  0.807172  0.500714  0.500142  -0.240786
    C   C277  0.000739  0.307187  0.999993  -0.241482
    C   C278  0.692837  0.999650  0.999828  -0.236149
    C   C279  0.999303  0.692848  0.000015  -0.236032
    C   C280  0.307174  0.000443  0.000147  -0.239822
    C   C281  0.429692  0.806202  0.493645  -0.232701
    C   C282  0.425838  0.793132  0.467599  0.127306
    C   C283  0.389603  0.771133  0.464639  0.230558
    C   C284  0.385865  0.757774  0.438720  -0.330695
    H   H113  0.406056  0.825506  0.497734  0.061224
    H   H114  0.427574  0.782078  0.506284  0.036633
    H   H115  0.449874  0.774968  0.462516  -0.025062
    H   H116  0.425373  0.818060  0.455545  -0.007879
    H   H117  0.365309  0.789354  0.469211  -0.038429
    H   H118  0.389917  0.746380  0.476848  -0.042868
    H   H119  0.385583  0.782316  0.426339  0.055051
    H   H120  0.359205  0.741902  0.436682  0.070165
    H   H121  0.409830  0.739142  0.434102  0.062985
    C   C285  0.193681  0.428957  0.496084  -0.231766
    C   C286  0.206645  0.422799  0.470201  0.111013
    C   C287  0.228356  0.386197  0.468495  0.218584
    C   C288  0.241573  0.380142  0.442728  -0.325249
    H   H122  0.174360  0.405750  0.501059  0.061759
    H   H123  0.217853  0.427917  0.508741  0.037837
    H   H124  0.224976  0.446232  0.464271  -0.019011
    H   H125  0.181679  0.421503  0.458205  -0.004042
    H   H126  0.209971  0.362470  0.473947  -0.032967
    H   H127  0.253159  0.387363  0.480640  -0.039100
    H   H128  0.216974  0.378971  0.430415  0.056210
    H   H129  0.257249  0.353235  0.441615  0.068331
    H   H130  0.260350  0.403540  0.437233  0.063287
    C   C289  0.570795  0.193758  0.496184  -0.231621
    C   C290  0.576904  0.206874  0.470327  0.111469
    C   C291  0.613489  0.228619  0.468649  0.222036
    C   C292  0.619494  0.241989  0.442910  -0.325838
    H   H131  0.594028  0.174431  0.501099  0.061860
    H   H132  0.571828  0.217858  0.508897  0.037545
    H   H133  0.553449  0.225224  0.464456  -0.019620
    H   H134  0.578197  0.181978  0.458271  -0.004320
    H   H135  0.637237  0.210219  0.474040  -0.034600
    H   H136  0.612327  0.253351  0.480854  -0.039937
    H   H137  0.620659  0.217461  0.430537  0.056317
    H   H138  0.646390  0.257688  0.441817  0.068436
    H   H139  0.596075  0.260783  0.437476  0.063055
    C   C293  0.806291  0.570595  0.493791  -0.228242
    C   C294  0.793110  0.574435  0.467767  0.127753
    C   C295  0.771208  0.610731  0.464818  0.228279
    C   C296  0.757738  0.614456  0.438922  -0.327203
    H   H140  0.825645  0.594210  0.497832  0.060026
    H   H141  0.782225  0.572763  0.506472  0.035685
    H   H142  0.774848  0.550444  0.462741  -0.026025
    H   H143  0.817983  0.574800  0.455664  -0.007847
    H   H144  0.789526  0.634979  0.469333  -0.038352
    H   H145  0.746515  0.610519  0.477077  -0.043105
    H   H146  0.782222  0.614636  0.426493  0.054158
    H   H147  0.741937  0.641159  0.436892  0.069903
    H   H148  0.739011  0.590538  0.434361  0.062043
    C   C297  0.430133  0.193322  0.503818  -0.226416
    C   C298  0.423912  0.206239  0.529705  0.110922
    C   C299  0.387191  0.227746  0.531421  0.222441
    C   C300  0.381069  0.240914  0.557192  -0.321887
    H   H149  0.407020  0.173891  0.498838  0.059687
    H   H150  0.428975  0.217496  0.491168  0.037286
    H   H151  0.447247  0.224698  0.535634  -0.020459
    H   H152  0.422759  0.181261  0.541697  -0.004776
    H   H153  0.363565  0.209233  0.525967  -0.034209
    H   H154  0.388216  0.252562  0.519281  -0.041026
    H   H155  0.380037  0.216301  0.569499  0.055093
    H   H156  0.354077  0.256441  0.558311  0.067059
    H   H157  0.404365  0.259816  0.562689  0.062545
    C   C301  0.193433  0.569624  0.503687  -0.222638
    C   C302  0.206501  0.575825  0.529545  0.117863
    C   C303  0.228039  0.612532  0.531217  0.222715
    C   C304  0.241357  0.618633  0.556958  -0.324211
    H   H158  0.173995  0.592756  0.498756  0.058224
    H   H159  0.217536  0.570761  0.490981  0.035587
    H   H160  0.224979  0.552477  0.535426  -0.022378
    H   H161  0.181592  0.576986  0.541595  -0.007226
    H   H162  0.209509  0.636173  0.525813  -0.035122
    H   H163  0.252785  0.611499  0.519019  -0.041361
    H   H164  0.216815  0.619672  0.569323  0.055491
    H   H165  0.256906  0.645616  0.558046  0.068004
    H   H166  0.260278  0.595323  0.562405  0.062757
    C   C305  0.569466  0.806630  0.506315  -0.218101
    C   C306  0.573389  0.793491  0.532342  0.128444
    C   C307  0.609824  0.771825  0.535298  0.228349
    C   C308  0.613635  0.758398  0.561198  -0.324433
    H   H167  0.592979  0.826101  0.502261  0.056646
    H   H168  0.571748  0.782565  0.493642  0.033343
    H   H169  0.549514  0.775079  0.537371  -0.025875
    H   H170  0.573593  0.818373  0.544438  -0.009296
    H   H171  0.633955  0.790295  0.530778  -0.038278
    H   H172  0.609771  0.747122  0.523046  -0.043743
    H   H173  0.613660  0.782892  0.573619  0.053137
    H   H174  0.640440  0.742770  0.563233  0.068888
    H   H175  0.589837  0.739523  0.565765  0.061522
    C   C309  0.806578  0.430828  0.506491  -0.228378
    C   C310  0.793548  0.426920  0.532542  0.128293
    C   C311  0.771781  0.390549  0.535524  0.229135
    C   C312  0.758463  0.386752  0.561447  -0.326285
    H   H176  0.825999  0.407289  0.502400  0.059341
    H   H177  0.782455  0.428582  0.493861  0.036181
    H   H178  0.775234  0.450846  0.537617  -0.025889
    H   H179  0.818485  0.426626  0.544590  -0.008550
    H   H180  0.790153  0.366365  0.530957  -0.038166
    H   H181  0.747019  0.390692  0.523321  -0.043290
    H   H182  0.783015  0.386638  0.573822  0.054021
    H   H183  0.742761  0.359995  0.563501  0.068954
    H   H184  0.739684  0.410605  0.566061  0.061898
    C   C313  0.930422  0.306589  0.996068  -0.229084
    C   C314  0.924331  0.293610  0.970180  0.117584
    C   C315  0.887718  0.271926  0.968436  0.224624
    C   C316  0.881739  0.258676  0.942669  -0.325917
    H   H185  0.907261  0.325999  0.000988  0.059814
    H   H186  0.929241  0.282440  0.008737  0.037362
    H   H187  0.947766  0.275255  0.964282  -0.023354
    H   H188  0.923092  0.318568  0.958174  -0.006596
    H   H189  0.863988  0.290338  0.973845  -0.035163
    H   H190  0.888823  0.247138  0.980596  -0.041445
    H   H191  0.880639  0.283258  0.930338  0.055696
    H   H192  0.854819  0.243027  0.941527  0.068276
    H   H193  0.905136  0.239865  0.937221  0.063220
    C   C317  0.693785  0.929319  0.996027  -0.239539
    C   C318  0.706751  0.923178  0.970142  0.113538
    C   C319  0.728517  0.886609  0.968435  0.224385
    C   C320  0.741734  0.880571  0.942666  -0.327371
    H   H194  0.674496  0.906085  0.001003  0.063464
    H   H195  0.717959  0.928312  0.008682  0.039914
    H   H196  0.725045  0.946639  0.964209  -0.020222
    H   H197  0.681784  0.921844  0.958149  -0.004323
    H   H198  0.710170  0.862855  0.973890  -0.034889
    H   H199  0.753322  0.887814  0.980577  -0.040875
    H   H200  0.717133  0.879362  0.930357  0.056230
    H   H201  0.757451  0.853688  0.941553  0.068890
    H   H202  0.760474  0.903997  0.937168  0.063487
    C   C321  0.069216  0.693449  0.993780  -0.218406
    C   C322  0.073224  0.706552  0.967751  0.124018
    C   C323  0.109695  0.728169  0.964825  0.229778
    C   C324  0.113603  0.741541  0.938920  -0.325921
    H   H203  0.092732  0.674007  0.997884  0.056828
    H   H204  0.071424  0.717535  0.006442  0.033583
    H   H205  0.049384  0.724989  0.962690  -0.024100
    H   H206  0.073430  0.681656  0.955667  -0.007925
    H   H207  0.133790  0.709678  0.969389  -0.038160
    H   H208  0.109636  0.752894  0.977058  -0.044119
    H   H209  0.113645  0.717022  0.926518  0.053356
    H   H210  0.140429  0.757140  0.936908  0.069227
    H   H211  0.089838  0.760429  0.934305  0.062231
    C   C325  0.306184  0.070324  0.993798  -0.231544
    C   C326  0.292974  0.074151  0.967779  0.126080
    C   C327  0.270998  0.110405  0.964846  0.230724
    C   C328  0.257500  0.114118  0.938956  -0.329651
    H   H212  0.325507  0.093967  0.997833  0.061087
    H   H213  0.282128  0.072455  0.006489  0.036627
    H   H214  0.274754  0.050127  0.962754  -0.024661
    H   H215  0.317835  0.074570  0.955668  -0.007661
    H   H216  0.289272  0.134687  0.969360  -0.038645
    H   H217  0.246315  0.110139  0.977113  -0.043043
    H   H218  0.281973  0.114353  0.926518  0.055062
    H   H219  0.241645  0.140792  0.936936  0.069899
    H   H220  0.238816  0.090165  0.934396  0.062425
    C   C329  0.929393  0.693707  0.006250  -0.229256
    C   C330  0.925416  0.706711  0.032302  0.126897
    C   C331  0.889059  0.728512  0.035247  0.224369
    C   C332  0.885183  0.741784  0.061175  -0.325523
    H   H221  0.905800  0.674381  0.002101  0.060325
    H   H222  0.927297  0.717858  0.993632  0.036295
    H   H223  0.949348  0.724993  0.037413  -0.025129
    H   H224  0.925057  0.681760  0.044338  -0.007067
    H   H225  0.864871  0.710175  0.030631  -0.036898
    H   H226  0.889272  0.753294  0.023062  -0.042050
    H   H227  0.884988  0.717208  0.073530  0.053822
    H   H228  0.858440  0.757520  0.063201  0.069319
    H   H229  0.909045  0.760520  0.065842  0.062447
    C   C333  0.693338  0.069986  0.003627  -0.218465
    C   C334  0.706402  0.076207  0.029483  0.114122
    C   C335  0.727886  0.112947  0.031152  0.220378
    C   C336  0.741203  0.119068  0.056892  -0.324289
    H   H230  0.673867  0.093091  0.998696  0.057528
    H   H231  0.717437  0.071154  0.990918  0.034426
    H   H232  0.724918  0.052887  0.035362  -0.020754
    H   H233  0.681495  0.077332  0.041536  -0.006671
    H   H234  0.709318  0.136559  0.025751  -0.033995
    H   H235  0.752629  0.111952  0.018951  -0.040126
    H   H236  0.716664  0.120070  0.069260  0.056046
    H   H237  0.756711  0.146075  0.057978  0.067700
    H   H238  0.760160  0.095787  0.062336  0.062945
    C   C337  0.071052  0.306323  0.003920  -0.228122
    C   C338  0.077068  0.293177  0.029780  0.114579
    C   C339  0.113627  0.271396  0.031496  0.222749
    C   C340  0.119528  0.257976  0.057235  -0.324830
    H   H239  0.094287  0.325680  0.999057  0.060409
    H   H240  0.072162  0.282242  0.991195  0.036449
    H   H241  0.053581  0.274842  0.035616  -0.021514
    H   H242  0.078346  0.318060  0.041848  -0.005723
    H   H243  0.137410  0.289784  0.026152  -0.034928
    H   H244  0.112486  0.246685  0.019273  -0.040571
    H   H245  0.120663  0.282479  0.069627  0.055853
    H   H246  0.146409  0.242257  0.058357  0.068038
    H   H247  0.096077  0.239186  0.062618  0.062867
    C   C341  0.306689  0.930557  0.006497  -0.224144
    C   C342  0.293688  0.926635  0.032553  0.128626
    C   C343  0.271995  0.890224  0.035549  0.229125
    C   C344  0.258705  0.886414  0.061478  -0.327987
    H   H248  0.326140  0.907046  0.002400  0.058007
    H   H249  0.282557  0.928274  0.993876  0.035169
    H   H250  0.275332  0.950528  0.037630  -0.026528
    H   H251  0.318636  0.926395  0.044592  -0.008632
    H   H252  0.290411  0.866073  0.030982  -0.038188
    H   H253  0.247224  0.890312  0.023354  -0.043544
    H   H254  0.283267  0.886353  0.073844  0.054302
    H   H255  0.243057  0.859627  0.063542  0.069657
    H   H256  0.239883  0.910232  0.066093  0.062537
