# generated using pymatgen
data_Zn3H20C40(O6F)2
_symmetry_space_group_name_H-M   'P 1'
_cell_length_a   21.86329800
_cell_length_b   31.23921900
_cell_length_c   30.58058500
_cell_angle_alpha   90.00000000
_cell_angle_beta   90.00000000
_cell_angle_gamma   90.00000000
_symmetry_Int_Tables_number   1
_chemical_formula_structural   Zn3H20C40(O6F)2
_chemical_formula_sum   'Zn24 H160 C320 O96 F16'
_cell_volume   20886.30574454
_cell_formula_units_Z   8
loop_
 _symmetry_equiv_pos_site_id
 _symmetry_equiv_pos_as_xyz
  1  'x, y, z'
loop_
 _atom_site_type_symbol
 _atom_site_label
 _atom_site_symmetry_multiplicity
 _atom_site_fract_x
 _atom_site_fract_y
 _atom_site_fract_z
 _atom_site_occupancy
  Zn  Zn1  1  0.24925700  0.03388200  0.03566900  1
  Zn  Zn2  1  0.75122300  0.96637600  0.03545400  1
  Zn  Zn3  1  0.24939200  0.96644100  0.96442400  1
  Zn  Zn4  1  0.75132500  0.03398800  0.96437600  1
  Zn  Zn5  1  0.74909900  0.53379500  0.03567900  1
  Zn  Zn6  1  0.25089800  0.46632700  0.03561900  1
  Zn  Zn7  1  0.74899700  0.46619100  0.96459400  1
  Zn  Zn8  1  0.25109000  0.53376000  0.96436600  1
  Zn  Zn9  1  0.74901600  0.03362000  0.53557600  1
  Zn  Zn10  1  0.25084600  0.96615100  0.53559600  1
  Zn  Zn11  1  0.74889800  0.96610300  0.46440400  1
  Zn  Zn12  1  0.25097500  0.03379600  0.46455200  1
  Zn  Zn13  1  0.24878800  0.53386700  0.53545300  1
  Zn  Zn14  1  0.75071600  0.46639600  0.53554500  1
  Zn  Zn15  1  0.24876800  0.46623400  0.46439700  1
  Zn  Zn16  1  0.75073900  0.53390000  0.46436200  1
  Zn  Zn17  1  0.18086600  0.75000300  0.24990700  1
  Zn  Zn18  1  0.81928400  0.24993300  0.25017900  1
  Zn  Zn19  1  0.18094400  0.25027800  0.75008400  1
  Zn  Zn20  1  0.81892200  0.75010000  0.75007400  1
  Zn  Zn21  1  0.68105900  0.24996900  0.25005300  1
  Zn  Zn22  1  0.31905800  0.75018000  0.24987700  1
  Zn  Zn23  1  0.68073000  0.74988900  0.75003100  1
  Zn  Zn24  1  0.31913600  0.24988700  0.74995900  1
  H  H1  1  0.44508400  0.14643000  0.99282000  1
  H  H2  1  0.55536600  0.85550200  0.99202800  1
  H  H3  1  0.44529200  0.85547300  0.00763800  1
  H  H4  1  0.55543300  0.14643500  0.00739500  1
  H  H5  1  0.94384200  0.64537300  0.99141400  1
  H  H6  1  0.05617100  0.35483700  0.99174500  1
  H  H7  1  0.94597900  0.35445200  0.00691800  1
  H  H8  1  0.05407600  0.64580000  0.00642600  1
  H  H9  1  0.94370300  0.14518400  0.49165500  1
  H  H10  1  0.05618600  0.85468500  0.49139400  1
  H  H11  1  0.94596700  0.85422800  0.50646200  1
  H  H12  1  0.05389200  0.14560800  0.50683300  1
  H  H13  1  0.44352500  0.64535000  0.49147300  1
  H  H14  1  0.55600100  0.35485100  0.49164100  1
  H  H15  1  0.44579000  0.35441500  0.50674100  1
  H  H16  1  0.55372500  0.64579700  0.50661200  1
  H  H17  1  0.39011400  0.92145100  0.01381200  1
  H  H18  1  0.61071600  0.08044800  0.01291900  1
  H  H19  1  0.38983600  0.08043500  0.98722300  1
  H  H20  1  0.61051500  0.92150700  0.98602100  1
  H  H21  1  0.89028900  0.42025100  0.01273500  1
  H  H22  1  0.10978400  0.58001800  0.01235700  1
  H  H23  1  0.88910300  0.57917200  0.98577800  1
  H  H24  1  0.11089400  0.42102000  0.98583600  1
  H  H25  1  0.89022800  0.91999400  0.51241500  1
  H  H26  1  0.10962000  0.07982800  0.51270000  1
  H  H27  1  0.88901700  0.07898200  0.48578500  1
  H  H28  1  0.11088200  0.92089900  0.48573100  1
  H  H29  1  0.39005500  0.42019100  0.51262100  1
  H  H30  1  0.60945300  0.58002300  0.51257300  1
  H  H31  1  0.38883100  0.57914200  0.48574300  1
  H  H32  1  0.61069500  0.42105700  0.48587500  1
  H  H33  1  0.18062700  0.06447400  0.86711500  1
  H  H34  1  0.81872500  0.93667300  0.86648700  1
  H  H35  1  0.18256200  0.93665500  0.13368400  1
  H  H36  1  0.82064700  0.06412400  0.13269600  1
  H  H37  1  0.68028000  0.56367900  0.86692500  1
  H  H38  1  0.31835000  0.43641900  0.86639800  1
  H  H39  1  0.68220500  0.43632800  0.13377200  1
  H  H40  1  0.31912100  0.56439200  0.13293900  1
  H  H41  1  0.68032500  0.06361500  0.36689900  1
  H  H42  1  0.31927100  0.93646700  0.36673400  1
  H  H43  1  0.68123100  0.93588400  0.63315800  1
  H  H44  1  0.31901400  0.06363600  0.63320900  1
  H  H45  1  0.18054700  0.56362500  0.36657700  1
  H  H46  1  0.81808300  0.43639100  0.36629400  1
  H  H47  1  0.18053500  0.43630600  0.63302600  1
  H  H48  1  0.81850600  0.56404300  0.63318100  1
  H  H49  1  0.18079000  0.12232200  0.81315500  1
  H  H50  1  0.81942800  0.87877200  0.81263900  1
  H  H51  1  0.18236000  0.87878500  0.18766300  1
  H  H52  1  0.82124700  0.12192300  0.18669200  1
  H  H53  1  0.67966500  0.62154100  0.81303000  1
  H  H54  1  0.31828300  0.37859900  0.81235700  1
  H  H55  1  0.68229500  0.37852800  0.18771600  1
  H  H56  1  0.31900000  0.62228700  0.18683600  1
  H  H57  1  0.67971700  0.12149200  0.31294500  1
  H  H58  1  0.31993000  0.87863500  0.31280500  1
  H  H59  1  0.68117400  0.87804200  0.68712200  1
  H  H60  1  0.31981900  0.12147700  0.68707600  1
  H  H61  1  0.17999300  0.62146600  0.31265800  1
  H  H62  1  0.81795500  0.37849000  0.31241700  1
  H  H63  1  0.17984900  0.37847700  0.68690500  1
  H  H64  1  0.81850800  0.62182900  0.68721000  1
  H  H65  1  0.31809000  0.12939100  0.94012400  1
  H  H66  1  0.68307100  0.87058300  0.94005300  1
  H  H67  1  0.31691400  0.87008700  0.05927300  1
  H  H68  1  0.68267400  0.12931800  0.06044900  1
  H  H69  1  0.81675400  0.62937600  0.94005100  1
  H  H70  1  0.18366100  0.37009700  0.94071500  1
  H  H71  1  0.81787900  0.37052700  0.05985900  1
  H  H72  1  0.18172300  0.62928500  0.05984700  1
  H  H73  1  0.81670400  0.12944300  0.44004000  1
  H  H74  1  0.18320300  0.87050300  0.44001200  1
  H  H75  1  0.81790400  0.87043700  0.55985300  1
  H  H76  1  0.18216800  0.12933700  0.56035200  1
  H  H77  1  0.31669100  0.62947000  0.43988700  1
  H  H78  1  0.68297500  0.37052600  0.44058600  1
  H  H79  1  0.31755400  0.37074800  0.56020700  1
  H  H80  1  0.68205100  0.62964000  0.55980100  1
  H  H81  1  0.05633000  0.93115700  0.99885300  1
  H  H82  1  0.94425600  0.06769100  0.99940100  1
  H  H83  1  0.05634500  0.06768800  0.00070000  1
  H  H84  1  0.94426100  0.93115700  0.00084100  1
  H  H85  1  0.55649000  0.43183800  0.00017300  1
  H  H86  1  0.44355600  0.56802300  0.99993300  1
  H  H87  1  0.55563000  0.56837000  0.00169300  1
  H  H88  1  0.44440700  0.43149400  0.00170200  1
  H  H89  1  0.55637800  0.93179300  0.49990700  1
  H  H90  1  0.44349100  0.06799900  0.50004100  1
  H  H91  1  0.55556700  0.06832400  0.50165100  1
  H  H92  1  0.44430000  0.93146600  0.50158200  1
  H  H93  1  0.05622600  0.43199800  0.49982600  1
  H  H94  1  0.94328200  0.56818000  0.49965900  1
  H  H95  1  0.05536000  0.56853100  0.50129300  1
  H  H96  1  0.94414800  0.43165000  0.50147900  1
  H  H97  1  0.39921100  0.17289700  0.84048200  1
  H  H98  1  0.47102300  0.23176500  0.85469700  1
  H  H99  1  0.35369900  0.27861800  0.95504800  1
  H  H100  1  0.28248200  0.21920400  0.94108100  1
  H  H101  1  0.60183600  0.82667400  0.84104600  1
  H  H102  1  0.53094800  0.76729600  0.85550600  1
  H  H103  1  0.65030900  0.72070100  0.95475300  1
  H  H104  1  0.72055200  0.78066300  0.94058300  1
  H  H105  1  0.39920600  0.82590700  0.15781800  1
  H  H106  1  0.46893100  0.76587700  0.14331700  1
  H  H107  1  0.34744700  0.71948500  0.04529100  1
  H  H108  1  0.27833800  0.78008700  0.05952100  1
  H  H109  1  0.60268500  0.17286200  0.16049900  1
  H  H110  1  0.53094400  0.23187500  0.14671500  1
  H  H111  1  0.64753600  0.27870800  0.04591700  1
  H  H112  1  0.71868000  0.21914900  0.05945200  1
  H  H113  1  0.89758800  0.67293900  0.84053200  1
  H  H114  1  0.96935400  0.73181100  0.85490800  1
  H  H115  1  0.85170600  0.77856700  0.95511300  1
  H  H116  1  0.78057200  0.71912600  0.94101400  1
  H  H117  1  0.10121700  0.32624400  0.84201600  1
  H  H118  1  0.03102700  0.26648000  0.85650400  1
  H  H119  1  0.15192600  0.21978600  0.95474800  1
  H  H120  1  0.22150000  0.28012400  0.94053100  1
  H  H121  1  0.90045000  0.32716700  0.15790800  1
  H  H122  1  0.97118100  0.26773300  0.14324400  1
  H  H123  1  0.84969500  0.21997700  0.04589900  1
  H  H124  1  0.77965500  0.28003400  0.06022700  1
  H  H125  1  0.10066600  0.67300100  0.15946300  1
  H  H126  1  0.02894000  0.73190200  0.14516800  1
  H  H127  1  0.14628000  0.77849500  0.04470100  1
  H  H128  1  0.21741800  0.71905800  0.05875300  1
  H  H129  1  0.89732000  0.17341100  0.34023300  1
  H  H130  1  0.96840200  0.23274300  0.35431400  1
  H  H131  1  0.85068000  0.27895600  0.45473600  1
  H  H132  1  0.78017900  0.21908600  0.44089200  1
  H  H133  1  0.10213400  0.82690800  0.34073800  1
  H  H134  1  0.03079100  0.76777600  0.35509200  1
  H  H135  1  0.14934800  0.72092800  0.45470500  1
  H  H136  1  0.22004600  0.78064200  0.44064000  1
  H  H137  1  0.89930600  0.82671300  0.65899000  1
  H  H138  1  0.97026800  0.76733500  0.64476400  1
  H  H139  1  0.85118400  0.72045100  0.54548800  1
  H  H140  1  0.78084000  0.78039300  0.55944500  1
  H  H141  1  0.10148800  0.17300300  0.65944000  1
  H  H142  1  0.03030600  0.23227400  0.64523500  1
  H  H143  1  0.14917800  0.27934700  0.54591900  1
  H  H144  1  0.21969500  0.21948200  0.55981900  1
  H  H145  1  0.39775200  0.67312000  0.34049000  1
  H  H146  1  0.46922600  0.73215800  0.35490200  1
  H  H147  1  0.35103000  0.77883300  0.45481800  1
  H  H148  1  0.28019400  0.71921800  0.44068800  1
  H  H149  1  0.60044400  0.32693900  0.34205600  1
  H  H150  1  0.52928600  0.26783300  0.35698200  1
  H  H151  1  0.64947000  0.22085000  0.45552800  1
  H  H152  1  0.71998300  0.28054300  0.44089800  1
  H  H153  1  0.39830500  0.32724000  0.65932600  1
  H  H154  1  0.46973400  0.26811900  0.64511200  1
  H  H155  1  0.35113100  0.22087400  0.54571800  1
  H  H156  1  0.28036300  0.28058600  0.55962800  1
  H  H157  1  0.60041400  0.67324800  0.65879700  1
  H  H158  1  0.52960800  0.73272400  0.64459100  1
  H  H159  1  0.64922700  0.77982100  0.54574700  1
  H  H160  1  0.71940300  0.71976900  0.55967400  1
  C  C1  1  0.24887000  0.05960900  0.93992700  1
  C  C2  1  0.75123100  0.94084600  0.93962400  1
  C  C3  1  0.24931600  0.94067700  0.06018900  1
  C  C4  1  0.75180600  0.05947800  0.06018700  1
  C  C5  1  0.74828300  0.55932300  0.93984400  1
  C  C6  1  0.25148200  0.44055100  0.93985800  1
  C  C7  1  0.74935500  0.44069700  0.06041700  1
  C  C8  1  0.25096600  0.55950000  0.06010400  1
  C  C9  1  0.74833400  0.05928200  0.43978800  1
  C  C10  1  0.25148100  0.94067100  0.43975200  1
  C  C11  1  0.74909800  0.94047400  0.56017400  1
  C  C12  1  0.25082700  0.05924000  0.56038100  1
  C  C13  1  0.24829500  0.55936100  0.43961000  1
  C  C14  1  0.75116600  0.44072500  0.43975100  1
  C  C15  1  0.24877900  0.44077500  0.56022300  1
  C  C16  1  0.75074100  0.55953500  0.56014100  1
  C  C17  1  0.36916200  0.00092600  0.00050600  1
  C  C18  1  0.63143600  0.00095900  0.99950200  1
  C  C19  1  0.86888500  0.49964300  0.99931700  1
  C  C20  1  0.13115600  0.50056400  0.99924700  1
  C  C21  1  0.86879600  0.99943500  0.49923000  1
  C  C22  1  0.13107200  0.00042700  0.49932800  1
  C  C23  1  0.36861800  0.49960200  0.49927300  1
  C  C24  1  0.63088900  0.50060900  0.49930900  1
  C  C25  1  0.12983900  0.99942300  0.99956600  1
  C  C26  1  0.87075900  0.99942700  0.00034600  1
  C  C27  1  0.62956300  0.50032900  0.00096300  1
  C  C28  1  0.37047900  0.49953900  0.00075300  1
  C  C29  1  0.62947300  0.00027400  0.50076300  1
  C  C30  1  0.37039500  0.99952700  0.50082200  1
  C  C31  1  0.12929300  0.50048900  0.50058500  1
  C  C32  1  0.87021400  0.49969400  0.50060300  1
  C  C33  1  0.43833800  0.92351000  0.00685400  1
  C  C34  1  0.56237200  0.07839800  0.00642600  1
  C  C35  1  0.43818200  0.07839000  0.99370800  1
  C  C36  1  0.56229200  0.92353900  0.99298400  1
  C  C37  1  0.93855300  0.42246400  0.00598600  1
  C  C38  1  0.06150100  0.57778600  0.00568700  1
  C  C39  1  0.93741000  0.57731300  0.99247800  1
  C  C40  1  0.06260800  0.42289800  0.99261000  1
  C  C41  1  0.93850200  0.92224000  0.50571800  1
  C  C42  1  0.06135700  0.07759800  0.50594800  1
  C  C43  1  0.93730400  0.07712100  0.49256200  1
  C  C44  1  0.06258100  0.92274600  0.49245900  1
  C  C45  1  0.43832700  0.42242600  0.50590600  1
  C  C46  1  0.56118400  0.57778500  0.50584700  1
  C  C47  1  0.43712200  0.57728900  0.49250700  1
  C  C48  1  0.56239800  0.42291300  0.49261300  1
  C  C49  1  0.46954400  0.88542600  0.00406200  1
  C  C50  1  0.53111900  0.11648800  0.00399200  1
  C  C51  1  0.46941400  0.11648500  0.99618700  1
  C  C52  1  0.53110200  0.88544200  0.99568100  1
  C  C53  1  0.97004800  0.38448300  0.00338900  1
  C  C54  1  0.02999900  0.61575900  0.00301900  1
  C  C55  1  0.96835500  0.61552200  0.99497000  1
  C  C56  1  0.03166800  0.38469800  0.99525200  1
  C  C57  1  0.97002400  0.88427500  0.50304100  1
  C  C58  1  0.02984100  0.11556900  0.50332300  1
  C  C59  1  0.96822200  0.11533200  0.49518200  1
  C  C60  1  0.03165900  0.88452900  0.49496200  1
  C  C61  1  0.46984600  0.38445700  0.50327200  1
  C  C62  1  0.52966900  0.61575200  0.50316500  1
  C  C63  1  0.46804400  0.61550300  0.49504700  1
  C  C64  1  0.53147700  0.38470000  0.49517600  1
  C  C65  1  0.53194700  0.96240600  0.99824600  1
  C  C66  1  0.46861900  0.03951400  0.99860100  1
  C  C67  1  0.53195700  0.03952000  0.00147400  1
  C  C68  1  0.46866600  0.96239500  0.00168300  1
  C  C69  1  0.03195200  0.46167000  0.99768500  1
  C  C70  1  0.96808200  0.53855600  0.99761200  1
  C  C71  1  0.03139700  0.53879000  0.00073100  1
  C  C72  1  0.96864700  0.46144500  0.00087400  1
  C  C73  1  0.03189300  0.96149500  0.49761000  1
  C  C74  1  0.96798100  0.03836100  0.49765900  1
  C  C75  1  0.03128600  0.03860600  0.50085600  1
  C  C76  1  0.96858000  0.96124300  0.50073800  1
  C  C77  1  0.53171300  0.46167000  0.49771500  1
  C  C78  1  0.46779900  0.53853600  0.49766200  1
  C  C79  1  0.53110600  0.53878600  0.50083600  1
  C  C80  1  0.46840300  0.46142200  0.50086300  1
  C  C81  1  0.56402400  0.00096600  0.99973100  1
  C  C82  1  0.43657200  0.00094900  0.00028000  1
  C  C83  1  0.06374500  0.50034400  0.99922100  1
  C  C84  1  0.93629500  0.49988500  0.99928000  1
  C  C85  1  0.06366100  0.00017500  0.49928100  1
  C  C86  1  0.93620800  0.99967800  0.49921100  1
  C  C87  1  0.56348000  0.50035300  0.49931000  1
  C  C88  1  0.43602900  0.49985400  0.49928400  1
  C  C89  1  0.21155800  0.09118300  0.87108100  1
  C  C90  1  0.78834200  0.90967500  0.87057300  1
  C  C91  1  0.21274400  0.90957200  0.12942200  1
  C  C92  1  0.78974900  0.09087900  0.12892200  1
  C  C93  1  0.71083900  0.59059500  0.87091200  1
  C  C94  1  0.28805200  0.40939600  0.87063400  1
  C  C95  1  0.71275700  0.40943600  0.12960300  1
  C  C96  1  0.28820300  0.59110500  0.12894600  1
  C  C97  1  0.71086800  0.09054100  0.37087200  1
  C  C98  1  0.28880500  0.90950400  0.37074600  1
  C  C99  1  0.71195800  0.90906800  0.62913300  1
  C  C100  1  0.28838600  0.09052000  0.62927300  1
  C  C101  1  0.21105600  0.59056300  0.37059600  1
  C  C102  1  0.78766800  0.40943500  0.37055500  1
  C  C103  1  0.21121700  0.40945100  0.62909700  1
  C  C104  1  0.78782000  0.59088100  0.62914800  1
  C  C105  1  0.21140600  0.12394400  0.84085700  1
  C  C106  1  0.78898100  0.87686400  0.84041600  1
  C  C107  1  0.21237300  0.87681800  0.15964800  1
  C  C108  1  0.79033200  0.12361700  0.15916500  1
  C  C109  1  0.71026700  0.62338400  0.84072500  1
  C  C110  1  0.28825800  0.37667400  0.84036800  1
  C  C111  1  0.71255100  0.37667600  0.15982800  1
  C  C112  1  0.28838500  0.62389600  0.15913300  1
  C  C113  1  0.71029300  0.12330500  0.34065800  1
  C  C114  1  0.28940900  0.87673200  0.34054100  1
  C  C115  1  0.71166300  0.87630900  0.65935500  1
  C  C116  1  0.28909400  0.12331300  0.65945000  1
  C  C117  1  0.21051800  0.62333800  0.34039400  1
  C  C118  1  0.78782700  0.37663400  0.34037500  1
  C  C119  1  0.21057800  0.37666200  0.65928100  1
  C  C120  1  0.78808000  0.62360500  0.65941100  1
  C  C121  1  0.25165500  0.15778600  0.84489000  1
  C  C122  1  0.74951500  0.84258300  0.84466000  1
  C  C123  1  0.25169300  0.84250700  0.15518900  1
  C  C124  1  0.75019200  0.15754800  0.15535400  1
  C  C125  1  0.75001000  0.65753400  0.84481100  1
  C  C126  1  0.24874300  0.34246100  0.84477300  1
  C  C127  1  0.75221400  0.34252300  0.15549900  1
  C  C128  1  0.24818100  0.65776000  0.15505600  1
  C  C129  1  0.75005200  0.15742400  0.34473700  1
  C  C130  1  0.24979600  0.84251800  0.34467000  1
  C  C131  1  0.75160600  0.84230800  0.65521900  1
  C  C132  1  0.24939200  0.15748400  0.65541300  1
  C  C133  1  0.25018200  0.65752300  0.34453300  1
  C  C134  1  0.74822600  0.34245200  0.34481200  1
  C  C135  1  0.25036700  0.34253800  0.65526200  1
  C  C136  1  0.74817400  0.65762600  0.65527200  1
  C  C137  1  0.29137900  0.15906300  0.88049000  1
  C  C138  1  0.70995100  0.84103600  0.88036700  1
  C  C139  1  0.29067800  0.84075400  0.11922000  1
  C  C140  1  0.71008700  0.15890700  0.11997100  1
  C  C141  1  0.78976900  0.65897600  0.88042400  1
  C  C142  1  0.20974900  0.34076500  0.88074200  1
  C  C143  1  0.79148400  0.34102000  0.11964200  1
  C  C144  1  0.20845700  0.65901700  0.11945300  1
  C  C145  1  0.78974700  0.15894600  0.38034300  1
  C  C146  1  0.21013500  0.84098900  0.38032900  1
  C  C147  1  0.79117200  0.84087500  0.61954700  1
  C  C148  1  0.20950600  0.15893500  0.61988500  1
  C  C149  1  0.28983600  0.65901500  0.38020000  1
  C  C150  1  0.70908500  0.34095900  0.38075300  1
  C  C151  1  0.29026400  0.34112500  0.61973500  1
  C  C152  1  0.70869500  0.65912000  0.61955600  1
  C  C153  1  0.28810300  0.12773000  0.91207500  1
  C  C154  1  0.71281000  0.87246300  0.91188100  1
  C  C155  1  0.28756400  0.87210800  0.08764400  1
  C  C156  1  0.71292000  0.12758400  0.08835200  1
  C  C157  1  0.78682600  0.62759400  0.91197600  1
  C  C158  1  0.21304100  0.37206900  0.91235900  1
  C  C159  1  0.78828700  0.37240600  0.08811000  1
  C  C160  1  0.21169600  0.62764200  0.08790600  1
  C  C161  1  0.78682200  0.12760600  0.41194300  1
  C  C162  1  0.21304100  0.87236000  0.41189300  1
  C  C163  1  0.78806200  0.87223200  0.58797500  1
  C  C164  1  0.21220500  0.12750700  0.58836500  1
  C  C165  1  0.28686000  0.62764300  0.41176200  1
  C  C166  1  0.71244400  0.37235300  0.41226600  1
  C  C167  1  0.28749400  0.37254300  0.58821000  1
  C  C168  1  0.71183800  0.62779800  0.58794900  1
  C  C169  1  0.24937800  0.09339600  0.90705400  1
  C  C170  1  0.75086300  0.90712900  0.90669200  1
  C  C171  1  0.24977300  0.90689800  0.09306100  1
  C  C172  1  0.75159000  0.09318800  0.09314100  1
  C  C173  1  0.74852300  0.59305100  0.90692400  1
  C  C174  1  0.25100700  0.40677000  0.90698900  1
  C  C175  1  0.75005200  0.40697700  0.09336700  1
  C  C176  1  0.25039000  0.59329400  0.09296900  1
  C  C177  1  0.74855600  0.09303000  0.40688900  1
  C  C178  1  0.25122000  0.90696800  0.40680700  1
  C  C179  1  0.74962400  0.90671800  0.59308200  1
  C  C180  1  0.25052300  0.09294600  0.59334400  1
  C  C181  1  0.24862300  0.59306800  0.40666800  1
  C  C182  1  0.75056700  0.40695100  0.40687900  1
  C  C183  1  0.24910100  0.40706200  0.59317800  1
  C  C184  1  0.75023300  0.59328700  0.59305700  1
  C  C185  1  0.03177800  0.96118800  0.99916100  1
  C  C186  1  0.96881200  0.03766100  0.99947000  1
  C  C187  1  0.03178800  0.03765800  0.00053800  1
  C  C188  1  0.96881600  0.96118700  0.00061800  1
  C  C189  1  0.53174600  0.46179300  0.00031800  1
  C  C190  1  0.46829900  0.53806900  0.00017600  1
  C  C191  1  0.53126500  0.53826500  0.00151100  1
  C  C192  1  0.46877400  0.46159900  0.00150800  1
  C  C193  1  0.53164400  0.96175200  0.50012600  1
  C  C194  1  0.46822300  0.03804000  0.50020200  1
  C  C195  1  0.53119200  0.03822200  0.50144400  1
  C  C196  1  0.46867600  0.96156700  0.50140700  1
  C  C197  1  0.03148000  0.46195200  0.49997200  1
  C  C198  1  0.96802700  0.53822600  0.49987900  1
  C  C199  1  0.03099600  0.53842400  0.50113500  1
  C  C200  1  0.96851200  0.46175600  0.50124000  1
  C  C201  1  0.93732800  0.99942400  0.00014400  1
  C  C202  1  0.06326900  0.99942300  0.99975200  1
  C  C203  1  0.43705000  0.49973700  0.00080000  1
  C  C204  1  0.56299200  0.50012500  0.00095100  1
  C  C205  1  0.43696400  0.99971200  0.50081400  1
  C  C206  1  0.56290400  0.00007900  0.50077400  1
  C  C207  1  0.93678400  0.49989300  0.50056500  1
  C  C208  1  0.06272400  0.50028600  0.50055300  1
  C  C209  1  0.25089300  0.80896900  0.31106200  1
  C  C210  1  0.74914700  0.19094100  0.31113900  1
  C  C211  1  0.25065100  0.19108700  0.68896500  1
  C  C212  1  0.75121000  0.80887000  0.68889500  1
  C  C213  1  0.74874300  0.30888500  0.31122300  1
  C  C214  1  0.24907600  0.69110500  0.31095500  1
  C  C215  1  0.74853000  0.69104400  0.68897000  1
  C  C216  1  0.24921700  0.30896700  0.68885400  1
  C  C217  1  0.75065900  0.80897200  0.81112000  1
  C  C218  1  0.25132800  0.19122300  0.81120400  1
  C  C219  1  0.75113500  0.19102700  0.18899900  1
  C  C220  1  0.25131100  0.80906100  0.18884000  1
  C  C221  1  0.24897000  0.30904900  0.81108200  1
  C  C222  1  0.74891000  0.69110000  0.81121200  1
  C  C223  1  0.24856400  0.69123200  0.18870900  1
  C  C224  1  0.75165900  0.30897000  0.18909800  1
  C  C225  1  0.33416400  0.19429100  0.88789100  1
  C  C226  1  0.38851800  0.19664300  0.86503000  1
  C  C227  1  0.42900400  0.22952000  0.87317300  1
  C  C228  1  0.41602300  0.25942000  0.90499500  1
  C  C229  1  0.36327100  0.25580400  0.92937200  1
  C  C230  1  0.32296400  0.22284500  0.92124000  1
  C  C231  1  0.66773300  0.80551700  0.88795500  1
  C  C232  1  0.61310100  0.80292500  0.86546000  1
  C  C233  1  0.57317400  0.76974100  0.87371300  1
  C  C234  1  0.58700600  0.73976600  0.90527800  1
  C  C235  1  0.64005900  0.74359700  0.92928800  1
  C  C236  1  0.67981000  0.77686200  0.92104700  1
  C  C237  1  0.33234700  0.80494900  0.11151400  1
  C  C238  1  0.38720600  0.80206700  0.13367800  1
  C  C239  1  0.42649500  0.76852100  0.12539000  1
  C  C240  1  0.41176000  0.73843400  0.09414500  1
  C  C241  1  0.35843000  0.74249700  0.07049100  1
  C  C242  1  0.31932600  0.77613000  0.07875700  1
  C  C243  1  0.66735400  0.19421200  0.11280700  1
  C  C244  1  0.61321900  0.19662000  0.13592700  1
  C  C245  1  0.57278100  0.22958300  0.12803500  1
  C  C246  1  0.58558500  0.25951800  0.09621000  1
  C  C247  1  0.63810700  0.25585600  0.07158600  1
  C  C248  1  0.67837000  0.22281200  0.07947000  1
  C  C249  1  0.83242100  0.69427500  0.88787900  1
  C  C250  1  0.88685500  0.69664500  0.86511200  1
  C  C251  1  0.92728900  0.72953500  0.87332700  1
  C  C252  1  0.91418900  0.75941600  0.90514300  1
  C  C253  1  0.86136600  0.75576900  0.92943800  1
  C  C254  1  0.82110400  0.72280000  0.92123000  1
  C  C255  1  0.16783300  0.30509200  0.88840800  1
  C  C256  1  0.11299800  0.30238300  0.86618900  1
  C  C257  1  0.07344300  0.26899000  0.87447500  1
  C  C258  1  0.08788200  0.23889100  0.90577700  1
  C  C259  1  0.14118000  0.24279700  0.92949500  1
  C  C260  1  0.18054900  0.27627800  0.92123200  1
  C  C261  1  0.83364300  0.30550500  0.11191400  1
  C  C262  1  0.88874100  0.30318200  0.13384400  1
  C  C263  1  0.92855700  0.26995700  0.12548800  1
  C  C264  1  0.91409000  0.23964500  0.09440300  1
  C  C265  1  0.86047900  0.24315800  0.07098000  1
  C  C266  1  0.82084900  0.27647100  0.07931200  1
  C  C267  1  0.16572300  0.69426600  0.11200000  1
  C  C268  1  0.11138400  0.69669800  0.13487200  1
  C  C269  1  0.07094600  0.72959300  0.12668400  1
  C  C270  1  0.08395600  0.75943000  0.09480600  1
  C  C271  1  0.13668800  0.75573100  0.07042000  1
  C  C272  1  0.17694900  0.72275600  0.07859800  1
  C  C273  1  0.83211900  0.19442400  0.38771100  1
  C  C274  1  0.88638600  0.19710200  0.36478200  1
  C  C275  1  0.92645900  0.23024400  0.37284500  1
  C  C276  1  0.91315600  0.26009200  0.40464900  1
  C  C277  1  0.86050200  0.25616700  0.42908500  1
  C  C278  1  0.82060500  0.22294400  0.42103200  1
  C  C279  1  0.16768900  0.80557900  0.38781100  1
  C  C280  1  0.11314000  0.80314200  0.36519600  1
  C  C281  1  0.07295000  0.77010100  0.37339400  1
  C  C282  1  0.08642700  0.74012200  0.40503300  1
  C  C283  1  0.13938400  0.74381500  0.42917300  1
  C  C284  1  0.17939700  0.77693700  0.42098600  1
  C  C285  1  0.83351600  0.80540900  0.61207000  1
  C  C286  1  0.88808200  0.80288400  0.63464800  1
  C  C287  1  0.92807300  0.76971000  0.62651000  1
  C  C288  1  0.91435600  0.73966200  0.59499100  1
  C  C289  1  0.86135100  0.74340800  0.57091300  1
  C  C290  1  0.82154400  0.77666600  0.57903400  1
  C  C291  1  0.16712200  0.19438600  0.61245300  1
  C  C292  1  0.11256300  0.19682300  0.63505300  1
  C  C293  1  0.07248000  0.22995000  0.62695000  1
  C  C294  1  0.08609400  0.26002900  0.59543700  1
  C  C295  1  0.13909300  0.25636500  0.57133700  1
  C  C296  1  0.17899800  0.22315600  0.57942700  1
  C  C297  1  0.33234800  0.69438400  0.38770300  1
  C  C298  1  0.38684400  0.69683500  0.36502200  1
  C  C299  1  0.42711100  0.72982100  0.37325400  1
  C  C300  1  0.41377400  0.75972600  0.40499700  1
  C  C301  1  0.36088100  0.75601000  0.42920400  1
  C  C302  1  0.32078900  0.72294300  0.42098000  1
  C  C303  1  0.66675300  0.30555100  0.38855600  1
  C  C304  1  0.61183700  0.30314900  0.36639800  1
  C  C305  1  0.57175400  0.27012300  0.37492000  1
  C  C306  1  0.58572900  0.24011800  0.40642200  1
  C  C307  1  0.63909800  0.24376200  0.43010200  1
  C  C308  1  0.67900300  0.27687200  0.42159600  1
  C  C309  1  0.33277800  0.30574600  0.61231500  1
  C  C310  1  0.38733800  0.30340800  0.63492600  1
  C  C311  1  0.42756100  0.27036700  0.62681600  1
  C  C312  1  0.41409300  0.24028100  0.59527900  1
  C  C313  1  0.36109900  0.24385600  0.57116100  1
  C  C314  1  0.32105100  0.27697800  0.57925900  1
  C  C315  1  0.66643000  0.69463000  0.61207800  1
  C  C316  1  0.61177500  0.69713500  0.63454700  1
  C  C317  1  0.57187800  0.73036700  0.62642400  1
  C  C318  1  0.58579000  0.76050200  0.59503400  1
  C  C319  1  0.63890000  0.75678900  0.57107000  1
  C  C320  1  0.67861200  0.72347100  0.57917300  1
  O  O1  1  0.25193100  0.07077800  0.98122400  1
  O  O2  1  0.75067800  0.92953900  0.98093500  1
  O  O3  1  0.24988600  0.92946800  0.01884800  1
  O  O4  1  0.74871000  0.07074800  0.01891900  1
  O  O5  1  0.74903900  0.57062500  0.98115500  1
  O  O6  1  0.25078200  0.42934600  0.98120000  1
  O  O7  1  0.75222400  0.42944800  0.01913400  1
  O  O8  1  0.24803200  0.57065900  0.01879900  1
  O  O9  1  0.74906100  0.07053900  0.48111400  1
  O  O10  1  0.25077000  0.92934300  0.48105600  1
  O  O11  1  0.75202100  0.92926900  0.51888200  1
  O  O12  1  0.24789500  0.07051900  0.51911000  1
  O  O13  1  0.24894600  0.57068200  0.48091800  1
  O  O14  1  0.75053500  0.42948300  0.48108000  1
  O  O15  1  0.25177300  0.42950400  0.51895200  1
  O  O16  1  0.74774900  0.57073100  0.51884700  1
  O  O17  1  0.24612400  0.01973500  0.92671100  1
  O  O18  1  0.75162700  0.98078200  0.92646500  1
  O  O19  1  0.24892800  0.98058300  0.07344100  1
  O  O20  1  0.75454400  0.01957400  0.07330300  1
  O  O21  1  0.74806900  0.51938900  0.92667700  1
  O  O22  1  0.25179300  0.48045700  0.92660200  1
  O  O23  1  0.74642700  0.48059000  0.07354500  1
  O  O24  1  0.25379400  0.51963200  0.07333000  1
  O  O25  1  0.74807500  0.01936300  0.42657700  1
  O  O26  1  0.25175400  0.98061300  0.42661100  1
  O  O27  1  0.74622000  0.98035500  0.57335000  1
  O  O28  1  0.25368800  0.01933600  0.57348300  1
  O  O29  1  0.24803800  0.51942200  0.42646300  1
  O  O30  1  0.75143000  0.48064200  0.42652800  1
  O  O31  1  0.24589600  0.48067700  0.57333100  1
  O  O32  1  0.75361800  0.51965600  0.57332000  1
  O  O33  1  0.34058100  0.02495300  0.02921200  1
  O  O34  1  0.66035700  0.97678500  0.02793100  1
  O  O35  1  0.34025500  0.97681800  0.97201200  1
  O  O36  1  0.66000400  0.02504800  0.97084500  1
  O  O37  1  0.83999100  0.52371000  0.02785600  1
  O  O38  1  0.16002900  0.47652700  0.02782300  1
  O  O39  1  0.84029300  0.47545400  0.97075900  1
  O  O40  1  0.15977200  0.52465400  0.97061500  1
  O  O41  1  0.83990000  0.02348300  0.52778200  1
  O  O42  1  0.15996400  0.97632600  0.52783700  1
  O  O43  1  0.84020100  0.97529500  0.47063000  1
  O  O44  1  0.15967000  0.02461500  0.47077300  1
  O  O45  1  0.33968200  0.52369700  0.52776500  1
  O  O46  1  0.65982200  0.47656100  0.52784400  1
  O  O47  1  0.34006300  0.47542100  0.47068900  1
  O  O48  1  0.65944300  0.52474000  0.47068100  1
  O  O49  1  0.15830900  0.02530900  0.02653300  1
  O  O50  1  0.84260300  0.97347600  0.02738600  1
  O  O51  1  0.15800700  0.97353400  0.97247200  1
  O  O52  1  0.84227900  0.02538300  0.97345400  1
  O  O53  1  0.65772000  0.52636800  0.02791500  1
  O  O54  1  0.34228900  0.47359200  0.02777600  1
  O  O55  1  0.65804300  0.47448000  0.97396700  1
  O  O56  1  0.34203100  0.52536300  0.97371200  1
  O  O57  1  0.65763500  0.02627200  0.52775100  1
  O  O58  1  0.34222900  0.97349000  0.52777100  1
  O  O59  1  0.65794500  0.97443400  0.47375100  1
  O  O60  1  0.34192600  0.02541900  0.47386100  1
  O  O61  1  0.15741800  0.52652200  0.52755800  1
  O  O62  1  0.84208600  0.47371600  0.52763000  1
  O  O63  1  0.15780200  0.47460300  0.47363900  1
  O  O64  1  0.84170400  0.52553100  0.47361000  1
  O  O65  1  0.19867900  0.79398800  0.29693600  1
  O  O66  1  0.80145100  0.20441200  0.29565300  1
  O  O67  1  0.19851500  0.20617600  0.70312200  1
  O  O68  1  0.80373100  0.79578700  0.70431100  1
  O  O69  1  0.69628500  0.29419300  0.29728700  1
  O  O70  1  0.30127400  0.70611100  0.29682900  1
  O  O71  1  0.69599100  0.70414100  0.70434200  1
  O  O72  1  0.30140200  0.29390300  0.70294500  1
  O  O73  1  0.69846500  0.79395500  0.79699600  1
  O  O74  1  0.30386000  0.20423400  0.79574300  1
  O  O75  1  0.69884900  0.20450700  0.20450900  1
  O  O76  1  0.30385100  0.79594700  0.20420000  1
  O  O77  1  0.19637100  0.29601900  0.79575200  1
  O  O78  1  0.80111300  0.70609800  0.79708700  1
  O  O79  1  0.19605400  0.70432500  0.20413300  1
  O  O80  1  0.80410600  0.29423200  0.20301000  1
  O  O81  1  0.30386000  0.79635800  0.29528900  1
  O  O82  1  0.69617200  0.20509000  0.29681600  1
  O  O83  1  0.30368700  0.20365200  0.70465200  1
  O  O84  1  0.69842700  0.79444600  0.70338200  1
  O  O85  1  0.80151700  0.29589400  0.29537000  1
  O  O86  1  0.19609900  0.70374400  0.29522600  1
  O  O87  1  0.80129500  0.70548600  0.70346900  1
  O  O88  1  0.19623400  0.29642900  0.70466000  1
  O  O89  1  0.80364700  0.79634700  0.79539800  1
  O  O90  1  0.19856900  0.20571300  0.79673900  1
  O  O91  1  0.80412500  0.20513100  0.20334600  1
  O  O92  1  0.19853600  0.79463000  0.20332400  1
  O  O93  1  0.30168000  0.29453900  0.79655800  1
  O  O94  1  0.69594200  0.70370700  0.79543600  1
  O  O95  1  0.30134800  0.70564300  0.20321100  1
  O  O96  1  0.69887200  0.29598500  0.20493000  1
  F  F1  1  0.45576800  0.29176100  0.91299200  1
  F  F2  1  0.54781700  0.70711800  0.91337500  1
  F  F3  1  0.45032100  0.70542800  0.08601900  1
  F  F4  1  0.54588800  0.29194600  0.08846000  1
  F  F5  1  0.95388400  0.79177000  0.91321400  1
  F  F6  1  0.04905700  0.20603700  0.91390400  1
  F  F7  1  0.95316700  0.20695400  0.08621100  1
  F  F8  1  0.04425800  0.79178800  0.08676300  1
  F  F9  1  0.95249300  0.29269600  0.41256400  1
  F  F10  1  0.04697700  0.70761700  0.41308100  1
  F  F11  1  0.95360900  0.70702500  0.58700700  1
  F  F12  1  0.04675300  0.29262200  0.58748800  1
  F  F13  1  0.45330200  0.79217600  0.41308200  1
  F  F14  1  0.54638000  0.20763000  0.41479100  1
  F  F15  1  0.45357400  0.20777200  0.58732200  1
  F  F16  1  0.54663000  0.79319700  0.58706600  1
