# Generated by REPEAT Assigner based on pymatgen
data_DB0-m2_o3_o7_f0_nbo.sym.32_sqe
_audit_creation_date              2022-05-24
_audit_creation_method            REPEAT_Assigner
_cell_length_a                    38.530186
_cell_length_b                    38.530186
_cell_length_c                    35.179300
_cell_angle_alpha                 90.000000
_cell_angle_beta                  90.000000
_cell_angle_gamma                 90.000000
_cell_volume                      52226.318869
_symmetry_space_group_name_H-M    P1
_symmetry_Int_Tables_number       1
loop_
    _symmetry_equiv_pos_site_id
    _symmetry_equiv_pos_as_xyz
    1  x,y,z
loop_
    _atom_site_type_symbol
    _atom_site_label
    _atom_site_fract_x
    _atom_site_fract_y
    _atom_site_fract_z
    _atom_type_partial_charge
    O   O1    0.049421  0.471393  0.510595  -0.695011
    O   O2    0.471393  0.950579  0.510595  -0.695022
    O   O3    0.950579  0.528607  0.510595  -0.695041
    O   O4    0.528607  0.049421  0.510595  -0.695052
    O   O5    0.049421  0.528607  0.489404  -0.695064
    O   O6    0.471393  0.049421  0.489404  -0.695052
    O   O7    0.950579  0.471392  0.489404  -0.694998
    O   O8    0.528608  0.950579  0.489404  -0.695037
    O   O9    0.549421  0.971392  0.010595  -0.695074
    O   O10   0.971393  0.450579  0.010595  -0.695081
    O   O11   0.450579  0.028607  0.010595  -0.695038
    O   O12   0.028607  0.549421  0.010595  -0.695079
    O   O13   0.549421  0.028607  0.989404  -0.695063
    O   O14   0.971393  0.549420  0.989404  -0.695117
    O   O15   0.450579  0.971392  0.989404  -0.695073
    O   O16   0.028607  0.450579  0.989404  -0.695073
    C   C1    0.065630  0.500000  0.500000  1.150400
    C   C2    0.500000  0.934370  0.500000  1.150384
    C   C3    0.934370  0.500000  0.500000  1.150314
    C   C4    0.500000  0.065630  0.500000  1.150473
    C   C5    0.565630  0.000000  0.000000  1.150501
    C   C6    0.000000  0.434370  0.000000  1.150499
    C   C7    0.434370  0.000000  0.000000  1.150465
    C   C8    0.000000  0.565630  0.000000  1.150572
    O   O17   0.009621  0.471419  0.445851  -0.633964
    O   O18   0.471419  0.990379  0.445852  -0.634016
    O   O19   0.990379  0.528581  0.445851  -0.634008
    O   O20   0.528581  0.009621  0.445851  -0.633995
    O   O21   0.009621  0.528581  0.554148  -0.634044
    O   O22   0.471419  0.009621  0.554148  -0.634024
    O   O23   0.990379  0.471419  0.554148  -0.634008
    O   O24   0.528581  0.990379  0.554148  -0.634019
    O   O25   0.509621  0.971419  0.945851  -0.634024
    O   O26   0.971419  0.490379  0.945851  -0.634026
    O   O27   0.490379  0.028581  0.945852  -0.634014
    O   O28   0.028581  0.509621  0.945851  -0.634013
    O   O29   0.509621  0.028581  0.054148  -0.634032
    O   O30   0.971419  0.509621  0.054148  -0.634042
    O   O31   0.490379  0.971419  0.054148  -0.634046
    O   O32   0.028581  0.490379  0.054148  -0.634025
    O   O33   0.490603  0.549694  0.468645  -0.603802
    O   O34   0.549694  0.509397  0.468645  -0.603850
    O   O35   0.509397  0.450306  0.468645  -0.603782
    O   O36   0.450306  0.490603  0.468645  -0.603795
    O   O37   0.490603  0.450306  0.531354  -0.603769
    O   O38   0.549694  0.490603  0.531354  -0.603792
    O   O39   0.509397  0.549694  0.531354  -0.603817
    O   O40   0.450306  0.509397  0.531354  -0.603764
    O   O41   0.990603  0.049694  0.968645  -0.603772
    O   O42   0.049694  0.009397  0.968645  -0.603778
    O   O43   0.009397  0.950305  0.968645  -0.603781
    O   O44   0.950306  0.990603  0.968645  -0.603788
    O   O45   0.990603  0.950305  0.031354  -0.603819
    O   O46   0.049694  0.990602  0.031354  -0.603811
    O   O47   0.009397  0.049694  0.031354  -0.603816
    O   O48   0.950306  0.009397  0.031354  -0.603814
    C   C9    0.000000  0.500000  0.428008  0.687295
    C   C10   0.500000  0.000000  0.428008  0.687362
    C   C11   0.000000  0.500000  0.571991  0.687392
    C   C12   0.500000  0.000000  0.571991  0.687416
    C   C13   0.500000  0.000000  0.928008  0.687298
    C   C14   0.000000  0.500000  0.928008  0.687318
    C   C15   0.500000  0.000000  0.071992  0.687369
    C   C16   0.000000  0.500000  0.071991  0.687381
    Cu  Cu1   0.000000  0.466142  0.500000  0.977168
    Cu  Cu2   0.466142  0.000000  0.499999  0.977181
    Cu  Cu3   0.000000  0.533857  0.500000  0.977054
    Cu  Cu4   0.533858  0.000000  0.499999  0.977135
    Cu  Cu5   0.500000  0.966142  0.000000  0.977206
    Cu  Cu6   0.966142  0.500000  0.000000  0.977185
    Cu  Cu7   0.500000  0.033857  0.000000  0.977093
    Cu  Cu8   0.033858  0.500000  0.000000  0.977134
    Cu  Cu9   0.500000  0.500000  0.462849  0.970861
    Cu  Cu10  0.500000  0.500000  0.537150  0.970795
    Cu  Cu11  0.000000  0.000000  0.962849  0.970852
    Cu  Cu12  0.000000  0.000000  0.037150  0.970739
    C   C17   0.027427  0.485643  0.172554  -0.156106
    C   C18   0.485643  0.972573  0.172554  -0.156152
    C   C19   0.972573  0.514357  0.172554  -0.156128
    C   C20   0.514357  0.027426  0.172554  -0.156133
    C   C21   0.027427  0.514357  0.827445  -0.156407
    C   C22   0.485643  0.027427  0.827445  -0.156417
    C   C23   0.972573  0.485643  0.827445  -0.156420
    C   C24   0.514357  0.972573  0.827445  -0.156422
    C   C25   0.527427  0.985643  0.672554  -0.156311
    C   C26   0.985643  0.472573  0.672554  -0.156123
    C   C27   0.472573  0.014357  0.672554  -0.156185
    C   C28   0.014357  0.527427  0.672554  -0.156087
    C   C29   0.527427  0.014357  0.327445  -0.156109
    C   C30   0.985643  0.527427  0.327445  -0.156410
    C   C31   0.472573  0.985643  0.327445  -0.156129
    C   C32   0.014357  0.472573  0.327445  -0.156416
    H   H1    0.048913  0.474324  0.187934  0.126149
    H   H2    0.474324  0.951087  0.187934  0.126162
    H   H3    0.951087  0.525676  0.187934  0.126156
    H   H4    0.525676  0.048913  0.187934  0.126153
    H   H5    0.048913  0.525676  0.812066  0.126258
    H   H6    0.474324  0.048913  0.812066  0.126264
    H   H7    0.951087  0.474324  0.812066  0.126262
    H   H8    0.525676  0.951087  0.812066  0.126258
    H   H9    0.548913  0.974324  0.687933  0.126228
    H   H10   0.974324  0.451087  0.687934  0.126154
    H   H11   0.451087  0.025676  0.687934  0.126160
    H   H12   0.025676  0.548913  0.687933  0.126141
    H   H13   0.548913  0.025676  0.312066  0.126154
    H   H14   0.974324  0.548913  0.312066  0.126256
    H   H15   0.451087  0.974323  0.312066  0.126160
    H   H16   0.025676  0.451087  0.312066  0.126260
    C   C33   0.027543  0.485728  0.133385  -0.149723
    C   C34   0.485728  0.972457  0.133385  -0.149710
    C   C35   0.972457  0.514272  0.133384  -0.149726
    C   C36   0.514272  0.027542  0.133385  -0.149712
    C   C37   0.027543  0.514272  0.866615  -0.149600
    C   C38   0.485728  0.027542  0.866615  -0.149583
    C   C39   0.972457  0.485728  0.866615  -0.149593
    C   C40   0.514272  0.972457  0.866615  -0.149591
    C   C41   0.527543  0.985728  0.633385  -0.149626
    C   C42   0.985728  0.472457  0.633384  -0.149726
    C   C43   0.472457  0.014272  0.633385  -0.149681
    C   C44   0.014272  0.527543  0.633385  -0.149759
    C   C45   0.527543  0.014272  0.366615  -0.149752
    C   C46   0.985728  0.527542  0.366615  -0.149608
    C   C47   0.472457  0.985728  0.366615  -0.149734
    C   C48   0.014272  0.472457  0.366615  -0.149604
    H   H17   0.049292  0.474286  0.118608  0.147094
    H   H18   0.474286  0.950708  0.118608  0.147091
    H   H19   0.950708  0.525714  0.118608  0.147103
    H   H20   0.525714  0.049292  0.118608  0.147089
    H   H21   0.049292  0.525714  0.881392  0.147066
    H   H22   0.474286  0.049291  0.881392  0.147053
    H   H23   0.950708  0.474286  0.881392  0.147068
    H   H24   0.525714  0.950708  0.881392  0.147068
    H   H25   0.549292  0.974286  0.618607  0.147071
    H   H26   0.974286  0.450708  0.618607  0.147109
    H   H27   0.450708  0.025714  0.618607  0.147094
    H   H28   0.025714  0.549292  0.618607  0.147103
    H   H29   0.549292  0.025714  0.381391  0.147109
    H   H30   0.974286  0.549292  0.381392  0.147062
    H   H31   0.450708  0.974285  0.381391  0.147105
    H   H32   0.025714  0.450708  0.381392  0.147076
    C   C49   0.000000  0.500000  0.113600  0.015107
    C   C50   0.500000  0.000000  0.113600  0.015110
    C   C51   0.000000  0.500000  0.886399  0.015089
    C   C52   0.500000  0.000000  0.886399  0.015098
    C   C53   0.500000  0.000000  0.613600  0.015059
    C   C54   0.000000  0.500000  0.613600  0.015119
    C   C55   0.500000  0.000000  0.386399  0.015143
    C   C56   0.000000  0.500000  0.386399  0.015111
    C   C57   0.000000  0.500000  0.192126  0.246947
    C   C58   0.500000  0.000000  0.192126  0.247021
    C   C59   0.000000  0.500000  0.807873  0.247291
    C   C60   0.500000  0.000000  0.807873  0.247285
    C   C61   0.500000  0.000000  0.692126  0.247113
    C   C62   0.000000  0.500000  0.692126  0.246949
    C   C63   0.500000  0.000000  0.307873  0.246953
    C   C64   0.000000  0.500000  0.307873  0.247298
    C   C65   0.000000  0.500000  0.232883  -0.151960
    C   C66   0.500000  0.000000  0.232883  -0.152056
    C   C67   0.000000  0.500000  0.767116  -0.152153
    C   C68   0.500000  0.000000  0.767116  -0.152120
    C   C69   0.500000  0.000000  0.732883  -0.152045
    C   C70   0.000000  0.500000  0.732883  -0.151964
    C   C71   0.500000  0.000000  0.267116  -0.151989
    C   C72   0.000000  0.500000  0.267116  -0.152157
    C   C73   0.377889  0.503191  0.533702  -0.093077
    C   C74   0.503191  0.622111  0.533702  -0.093083
    C   C75   0.622111  0.496809  0.533702  -0.093065
    C   C76   0.496809  0.377889  0.533702  -0.093077
    C   C77   0.377889  0.496810  0.466297  -0.093081
    C   C78   0.503190  0.377889  0.466297  -0.093084
    C   C79   0.622111  0.503190  0.466297  -0.093084
    C   C80   0.496810  0.622111  0.466297  -0.093075
    C   C81   0.877889  0.003190  0.033702  -0.093079
    C   C82   0.003191  0.122111  0.033702  -0.093072
    C   C83   0.122111  0.996809  0.033702  -0.093086
    C   C84   0.996809  0.877889  0.033702  -0.093099
    C   C85   0.877889  0.996809  0.966297  -0.093051
    C   C86   0.003191  0.877889  0.966297  -0.093072
    C   C87   0.122111  0.003190  0.966297  -0.093055
    C   C88   0.996810  0.122111  0.966297  -0.093056
    H   H33   0.391420  0.505307  0.560501  0.117140
    H   H34   0.505307  0.608580  0.560501  0.117140
    H   H35   0.608580  0.494693  0.560501  0.117137
    H   H36   0.494693  0.391420  0.560501  0.117140
    H   H37   0.391420  0.494693  0.439498  0.117146
    H   H38   0.505307  0.391420  0.439498  0.117144
    H   H39   0.608580  0.505307  0.439498  0.117146
    H   H40   0.494693  0.608580  0.439498  0.117143
    H   H41   0.891420  0.005307  0.060501  0.117141
    H   H42   0.005307  0.108580  0.060501  0.117141
    H   H43   0.108580  0.994693  0.060501  0.117144
    H   H44   0.994693  0.891420  0.060501  0.117151
    H   H45   0.891420  0.994693  0.939498  0.117132
    H   H46   0.005307  0.891420  0.939498  0.117137
    H   H47   0.108580  0.005307  0.939498  0.117133
    H   H48   0.994693  0.108580  0.939498  0.117130
    C   C89   0.342118  0.502943  0.533734  -0.155002
    C   C90   0.502943  0.657882  0.533734  -0.154962
    C   C91   0.657882  0.497057  0.533734  -0.154987
    C   C92   0.497057  0.342118  0.533734  -0.155000
    C   C93   0.342118  0.497057  0.466265  -0.155020
    C   C94   0.502943  0.342118  0.466265  -0.155018
    C   C95   0.657882  0.502943  0.466265  -0.154980
    C   C96   0.497057  0.657882  0.466265  -0.155004
    C   C97   0.842118  0.002943  0.033734  -0.155020
    C   C98   0.002943  0.157882  0.033734  -0.155014
    C   C99   0.157882  0.997057  0.033734  -0.154999
    C   C100  0.997057  0.842118  0.033734  -0.155006
    C   C101  0.842118  0.997057  0.966265  -0.155030
    C   C102  0.002943  0.842117  0.966265  -0.155026
    C   C103  0.157882  0.002943  0.966265  -0.155011
    C   C104  0.997057  0.157882  0.966265  -0.155009
    H   H49   0.328747  0.504340  0.560673  0.113183
    H   H50   0.504340  0.671253  0.560673  0.113172
    H   H51   0.671253  0.495660  0.560673  0.113179
    H   H52   0.495660  0.328747  0.560673  0.113182
    H   H53   0.328747  0.495660  0.439326  0.113196
    H   H54   0.504339  0.328747  0.439326  0.113197
    H   H55   0.671253  0.504339  0.439326  0.113184
    H   H56   0.495661  0.671253  0.439326  0.113192
    H   H57   0.828748  0.004340  0.060673  0.113195
    H   H58   0.004340  0.171252  0.060673  0.113191
    H   H59   0.171253  0.995660  0.060673  0.113186
    H   H60   0.995660  0.828747  0.060673  0.113186
    H   H61   0.828747  0.995660  0.939326  0.113195
    H   H62   0.004340  0.828747  0.939326  0.113196
    H   H63   0.171253  0.004339  0.939326  0.113189
    H   H64   0.995661  0.171253  0.939326  0.113189
    C   C105  0.323883  0.500000  0.500000  0.111673
    C   C106  0.500000  0.676117  0.500000  0.111654
    C   C107  0.676117  0.500000  0.500000  0.111653
    C   C108  0.500000  0.323883  0.500000  0.111672
    C   C109  0.823883  0.000000  0.999999  0.111687
    C   C110  0.000000  0.176117  0.999999  0.111677
    C   C111  0.176117  0.000000  0.999999  0.111664
    C   C112  0.000000  0.823882  0.999999  0.111679
    C   C113  0.395977  0.500000  0.500000  -0.039461
    C   C114  0.500000  0.604022  0.500000  -0.039533
    C   C115  0.604022  0.500000  0.500000  -0.039530
    C   C116  0.500000  0.395977  0.500000  -0.039466
    C   C117  0.895978  0.000000  0.999999  -0.039501
    C   C118  0.000000  0.104022  0.999999  -0.039537
    C   C119  0.104023  0.000000  0.999999  -0.039503
    C   C120  0.000000  0.895977  0.999999  -0.039479
    C   C121  0.267423  0.479788  0.474332  -0.120722
    C   C122  0.479789  0.732577  0.474332  -0.120711
    C   C123  0.732577  0.520211  0.474332  -0.120706
    C   C124  0.520211  0.267423  0.474332  -0.120702
    C   C125  0.267423  0.520212  0.525667  -0.120696
    C   C126  0.479788  0.267423  0.525667  -0.120703
    C   C127  0.732577  0.479788  0.525667  -0.120719
    C   C128  0.520212  0.732577  0.525667  -0.120708
    C   C129  0.767423  0.979788  0.974332  -0.120691
    C   C130  0.979789  0.232577  0.974332  -0.120704
    C   C131  0.232577  0.020211  0.974332  -0.120695
    C   C132  0.020211  0.767422  0.974332  -0.120675
    C   C133  0.767423  0.020211  0.025667  -0.120691
    C   C134  0.979788  0.767422  0.025667  -0.120690
    C   C135  0.232577  0.979788  0.025667  -0.120716
    C   C136  0.020212  0.232577  0.025667  -0.120716
    H   H65   0.280785  0.462933  0.454647  0.107919
    H   H66   0.462934  0.719215  0.454647  0.107908
    H   H67   0.719215  0.537067  0.454647  0.107907
    H   H68   0.537066  0.280785  0.454647  0.107905
    H   H69   0.280785  0.537067  0.545352  0.107908
    H   H70   0.462933  0.280784  0.545352  0.107912
    H   H71   0.719215  0.462933  0.545352  0.107914
    H   H72   0.537067  0.719215  0.545352  0.107911
    H   H73   0.780784  0.962933  0.954647  0.107912
    H   H74   0.962933  0.219215  0.954647  0.107905
    H   H75   0.219216  0.037067  0.954647  0.107905
    H   H76   0.037067  0.780784  0.954647  0.107896
    H   H77   0.780785  0.037066  0.045352  0.107905
    H   H78   0.962933  0.780785  0.045352  0.107904
    H   H79   0.219215  0.962933  0.045352  0.107918
    H   H80   0.037067  0.219215  0.045352  0.107916
    C   C137  0.231658  0.480010  0.474160  -0.186427
    C   C138  0.480010  0.768342  0.474160  -0.186420
    C   C139  0.768342  0.519990  0.474160  -0.186423
    C   C140  0.519989  0.231658  0.474160  -0.186421
    C   C141  0.231658  0.519990  0.525839  -0.186420
    C   C142  0.480010  0.231658  0.525839  -0.186421
    C   C143  0.768342  0.480010  0.525839  -0.186399
    C   C144  0.519990  0.768342  0.525839  -0.186408
    C   C145  0.731658  0.980010  0.974160  -0.186455
    C   C146  0.980010  0.268342  0.974160  -0.186429
    C   C147  0.268342  0.019990  0.974160  -0.186426
    C   C148  0.019990  0.731657  0.974160  -0.186468
    C   C149  0.731658  0.019990  0.025839  -0.186441
    C   C150  0.980010  0.731657  0.025839  -0.186468
    C   C151  0.268342  0.980010  0.025839  -0.186424
    C   C152  0.019990  0.268342  0.025839  -0.186421
    H   H81   0.217970  0.463606  0.454252  0.117667
    H   H82   0.463606  0.782030  0.454252  0.117661
    H   H83   0.782030  0.536394  0.454252  0.117661
    H   H84   0.536394  0.217970  0.454252  0.117654
    H   H85   0.217969  0.536394  0.545747  0.117654
    H   H86   0.463606  0.217969  0.545747  0.117655
    H   H87   0.782030  0.463606  0.545747  0.117654
    H   H88   0.536394  0.782031  0.545747  0.117649
    H   H89   0.717969  0.963606  0.954252  0.117668
    H   H90   0.963606  0.282030  0.954252  0.117664
    H   H91   0.282031  0.036393  0.954252  0.117663
    H   H92   0.036394  0.717969  0.954252  0.117680
    H   H93   0.717970  0.036394  0.045747  0.117668
    H   H94   0.963606  0.717969  0.045747  0.117678
    H   H95   0.282030  0.963606  0.045747  0.117658
    H   H96   0.036394  0.282030  0.045747  0.117659
    C   C153  0.213584  0.500000  0.500000  0.158234
    C   C154  0.500000  0.786416  0.500000  0.158224
    C   C155  0.786416  0.500000  0.500000  0.158222
    C   C156  0.500000  0.213584  0.500000  0.158233
    C   C157  0.713584  0.000000  0.999999  0.158253
    C   C158  0.000000  0.286416  0.999999  0.158238
    C   C159  0.286416  0.000000  0.999999  0.158226
    C   C160  0.000000  0.713584  0.999999  0.158288
    C   C161  0.285658  0.500000  0.500000  0.034397
    C   C162  0.500000  0.714342  0.500000  0.034398
    C   C163  0.714342  0.500000  0.500000  0.034404
    C   C164  0.500000  0.285658  0.500000  0.034394
    C   C165  0.785658  0.000000  0.999999  0.034386
    C   C166  0.000000  0.214342  0.999999  0.034401
    C   C167  0.214342  0.000000  0.999999  0.034404
    C   C168  0.000000  0.785658  0.999999  0.034383
    C   C169  0.157575  0.497803  0.533747  -0.359467
    C   C170  0.497803  0.842425  0.533747  -0.359490
    C   C171  0.842425  0.502197  0.533747  -0.359482
    C   C172  0.502197  0.157575  0.533747  -0.359482
    C   C173  0.157575  0.502197  0.466252  -0.359486
    C   C174  0.497803  0.157575  0.466252  -0.359489
    C   C175  0.842425  0.497803  0.466252  -0.359485
    C   C176  0.502197  0.842425  0.466252  -0.359502
    C   C177  0.657575  0.997803  0.033747  -0.359472
    C   C178  0.997803  0.342425  0.033747  -0.359484
    C   C179  0.342425  0.002197  0.033747  -0.359485
    C   C180  0.002197  0.657575  0.033747  -0.359501
    C   C181  0.657575  0.002197  0.966252  -0.359472
    C   C182  0.997803  0.657575  0.966252  -0.359491
    C   C183  0.342425  0.997803  0.966252  -0.359511
    C   C184  0.002197  0.342425  0.966252  -0.359493
    H   H97   0.171547  0.495412  0.560254  0.147226
    H   H98   0.495412  0.828453  0.560254  0.147227
    H   H99   0.828453  0.504588  0.560254  0.147229
    H   H100  0.504588  0.171546  0.560255  0.147225
    H   H101  0.171547  0.504588  0.439745  0.147236
    H   H102  0.495411  0.171547  0.439745  0.147229
    H   H103  0.828453  0.495411  0.439745  0.147237
    H   H104  0.504589  0.828453  0.439745  0.147236
    H   H105  0.671547  0.995411  0.060254  0.147226
    H   H106  0.995412  0.328453  0.060254  0.147229
    H   H107  0.328453  0.004588  0.060254  0.147234
    H   H108  0.004588  0.671547  0.060254  0.147239
    H   H109  0.671547  0.004588  0.939745  0.147234
    H   H110  0.995411  0.671547  0.939745  0.147234
    H   H111  0.328454  0.995411  0.939745  0.147244
    H   H112  0.004589  0.328453  0.939745  0.147238
    C   C185  0.121791  0.497368  0.534107  0.365400
    C   C186  0.497368  0.878209  0.534107  0.365395
    C   C187  0.878209  0.502632  0.534107  0.365367
    C   C188  0.502632  0.121791  0.534107  0.365381
    C   C189  0.121791  0.502632  0.465892  0.365377
    C   C190  0.497368  0.121791  0.465892  0.365416
    C   C191  0.878209  0.497368  0.465892  0.365366
    C   C192  0.502632  0.878209  0.465892  0.365377
    C   C193  0.621791  0.997368  0.034107  0.365419
    C   C194  0.997368  0.378208  0.034107  0.365446
    C   C195  0.378209  0.002632  0.034107  0.365416
    C   C196  0.002632  0.621791  0.034107  0.365432
    C   C197  0.621791  0.002632  0.965892  0.365394
    C   C198  0.997368  0.621791  0.965892  0.365434
    C   C199  0.378209  0.997368  0.965892  0.365432
    C   C200  0.002632  0.378209  0.965892  0.365401
    C   C201  0.103572  0.500000  0.500000  -0.567881
    C   C202  0.500000  0.896428  0.500000  -0.567862
    C   C203  0.896428  0.500000  0.500000  -0.567820
    C   C204  0.500000  0.103572  0.499999  -0.567910
    C   C205  0.603572  0.000000  0.000000  -0.567930
    C   C206  0.000000  0.396428  0.000000  -0.567936
    C   C207  0.396428  0.000000  0.000000  -0.567933
    C   C208  0.000000  0.603571  0.000000  -0.567989
    C   C209  0.500000  0.566002  0.500000  0.686315
    C   C210  0.566003  0.500000  0.500000  0.686313
    C   C211  0.500000  0.433997  0.500000  0.686199
    C   C212  0.433997  0.500000  0.500000  0.686194
    C   C213  0.000000  0.066002  0.999999  0.686287
    C   C214  0.066003  0.000000  0.999999  0.686252
    C   C215  0.000000  0.933997  0.999999  0.686253
    C   C216  0.933998  0.000000  0.999999  0.686241
    C   C217  0.175560  0.500000  0.500000  0.154181
    C   C218  0.500000  0.824440  0.500000  0.154204
    C   C219  0.824440  0.500000  0.500000  0.154192
    C   C220  0.500000  0.175560  0.499999  0.154197
    C   C221  0.675560  0.000000  0.000000  0.154173
    C   C222  0.000000  0.324440  0.000000  0.154186
    C   C223  0.324440  0.000000  0.000000  0.154200
    C   C224  0.000000  0.675560  0.999999  0.154180
    C   C225  0.104362  0.494636  0.572119  -0.412743
    C   C226  0.110769  0.526807  0.594464  0.369330
    C   C227  0.129177  0.525446  0.628110  -0.254239
    C   C228  0.134374  0.555263  0.648996  -0.097150
    C   C229  0.121125  0.586433  0.636403  -0.166578
    C   C230  0.102667  0.587808  0.602887  -0.068385
    C   C231  0.097485  0.558039  0.581942  -0.224979
    H   H113  0.115290  0.471928  0.587301  0.113669
    H   H114  0.076053  0.490784  0.570516  0.115197
    H   H115  0.139598  0.501136  0.638333  0.115625
    H   H116  0.148794  0.554179  0.675322  0.114570
    H   H117  0.125155  0.609783  0.652847  0.115249
    H   H118  0.092155  0.612221  0.593075  0.098591
    H   H119  0.082706  0.559267  0.555880  0.119588
    C   C232  0.494637  0.895638  0.572119  -0.412742
    C   C233  0.526807  0.889230  0.594464  0.369327
    C   C234  0.525446  0.870823  0.628110  -0.254217
    C   C235  0.555263  0.865626  0.648996  -0.097177
    C   C236  0.586433  0.878875  0.636403  -0.166566
    C   C237  0.587808  0.897332  0.602888  -0.068401
    C   C238  0.558039  0.902515  0.581942  -0.224953
    H   H120  0.471928  0.884710  0.587301  0.113654
    H   H121  0.490784  0.923947  0.570516  0.115197
    H   H122  0.501136  0.860402  0.638333  0.115617
    H   H123  0.554179  0.851205  0.675322  0.114573
    H   H124  0.609783  0.874845  0.652847  0.115247
    H   H125  0.612221  0.907845  0.593075  0.098586
    H   H126  0.559267  0.917294  0.555881  0.119595
    C   C239  0.895638  0.505363  0.572119  -0.412691
    C   C240  0.889230  0.473193  0.594464  0.369338
    C   C241  0.870823  0.474554  0.628110  -0.254250
    C   C242  0.865626  0.444737  0.648996  -0.097164
    C   C243  0.878875  0.413567  0.636403  -0.166550
    C   C244  0.897332  0.412192  0.602888  -0.068411
    C   C245  0.902515  0.441961  0.581942  -0.224961
    H   H127  0.884710  0.528072  0.587301  0.113638
    H   H128  0.923947  0.509216  0.570517  0.115173
    H   H129  0.860402  0.498864  0.638333  0.115626
    H   H130  0.851206  0.445821  0.675322  0.114572
    H   H131  0.874845  0.390217  0.652847  0.115243
    H   H132  0.907845  0.387779  0.593075  0.098591
    H   H133  0.917294  0.440733  0.555880  0.119598
    C   C246  0.505363  0.104362  0.572119  -0.412733
    C   C247  0.473193  0.110769  0.594463  0.369338
    C   C248  0.474554  0.129177  0.628110  -0.254233
    C   C249  0.444737  0.134374  0.648996  -0.097165
    C   C250  0.413567  0.121124  0.636403  -0.166570
    C   C251  0.412192  0.102667  0.602887  -0.068409
    C   C252  0.441961  0.097485  0.581942  -0.224956
    H   H134  0.528072  0.115290  0.587300  0.113655
    H   H135  0.509216  0.076053  0.570516  0.115196
    H   H136  0.498864  0.139598  0.638334  0.115621
    H   H137  0.445820  0.148794  0.675322  0.114576
    H   H138  0.390216  0.125154  0.652847  0.115243
    H   H139  0.387779  0.092155  0.593074  0.098596
    H   H140  0.440733  0.082706  0.555880  0.119589
    C   C253  0.104362  0.505364  0.427881  -0.412728
    C   C254  0.110770  0.473193  0.405536  0.369316
    C   C255  0.129177  0.474554  0.371889  -0.254223
    C   C256  0.134374  0.444737  0.351003  -0.097182
    C   C257  0.121125  0.413567  0.363596  -0.166569
    C   C258  0.102668  0.412192  0.397112  -0.068417
    C   C259  0.097485  0.441961  0.418057  -0.224937
    H   H141  0.115290  0.528071  0.412698  0.113655
    H   H142  0.076053  0.509216  0.429482  0.115206
    H   H143  0.139598  0.498864  0.361666  0.115620
    H   H144  0.148794  0.445821  0.324677  0.114582
    H   H145  0.125155  0.390217  0.347152  0.115250
    H   H146  0.092155  0.387779  0.406924  0.098597
    H   H147  0.082706  0.440733  0.444119  0.119583
    C   C260  0.494636  0.104362  0.427881  -0.412770
    C   C261  0.526807  0.110770  0.405536  0.369350
    C   C262  0.525446  0.129177  0.371889  -0.254260
    C   C263  0.555263  0.134374  0.351003  -0.097159
    C   C264  0.586433  0.121125  0.363596  -0.166568
    C   C265  0.587807  0.102668  0.397112  -0.068391
    C   C266  0.558039  0.097485  0.418057  -0.224965
    H   H148  0.471929  0.115290  0.412697  0.113660
    H   H149  0.490784  0.076053  0.429482  0.115226
    H   H150  0.501135  0.139598  0.361666  0.115626
    H   H151  0.554179  0.148794  0.324677  0.114575
    H   H152  0.609783  0.125155  0.347152  0.115250
    H   H153  0.612221  0.092155  0.406924  0.098577
    H   H154  0.559267  0.082706  0.444119  0.119587
    C   C267  0.895638  0.494636  0.427881  -0.412719
    C   C268  0.889230  0.526807  0.405536  0.369305
    C   C269  0.870823  0.525446  0.371889  -0.254219
    C   C270  0.865626  0.555263  0.351003  -0.097168
    C   C271  0.878875  0.586433  0.363596  -0.166588
    C   C272  0.897332  0.587807  0.397112  -0.068367
    C   C273  0.902515  0.558039  0.418057  -0.224950
    H   H155  0.884710  0.471928  0.412698  0.113659
    H   H156  0.923947  0.490783  0.429482  0.115209
    H   H157  0.860402  0.501135  0.361666  0.115615
    H   H158  0.851205  0.554179  0.324677  0.114577
    H   H159  0.874845  0.609783  0.347152  0.115256
    H   H160  0.907845  0.612221  0.406924  0.098570
    H   H161  0.917294  0.559267  0.444119  0.119578
    C   C274  0.505364  0.895638  0.427881  -0.412699
    C   C275  0.473193  0.889230  0.405536  0.369334
    C   C276  0.474554  0.870823  0.371889  -0.254235
    C   C277  0.444738  0.865626  0.351003  -0.097168
    C   C278  0.413567  0.878875  0.363596  -0.166578
    C   C279  0.412193  0.897332  0.397112  -0.068396
    C   C280  0.441962  0.902515  0.418057  -0.224959
    H   H162  0.528072  0.884710  0.412698  0.113643
    H   H163  0.509217  0.923947  0.429482  0.115195
    H   H164  0.498865  0.860402  0.361666  0.115616
    H   H165  0.445822  0.851205  0.324677  0.114577
    H   H166  0.390217  0.874845  0.347152  0.115257
    H   H167  0.387779  0.907844  0.406924  0.098582
    H   H168  0.440733  0.917294  0.444119  0.119587
    C   C281  0.604362  0.994636  0.072118  -0.412766
    C   C282  0.610770  0.026807  0.094464  0.369354
    C   C283  0.629177  0.025446  0.128110  -0.254254
    C   C284  0.634375  0.055263  0.148996  -0.097160
    C   C285  0.621125  0.086433  0.136403  -0.166567
    C   C286  0.602668  0.087807  0.102888  -0.068368
    C   C287  0.597485  0.058039  0.081942  -0.224995
    H   H169  0.615290  0.971928  0.087302  0.113659
    H   H170  0.576053  0.990784  0.070517  0.115204
    H   H171  0.639598  0.001135  0.138333  0.115623
    H   H172  0.648795  0.054179  0.175322  0.114581
    H   H173  0.625155  0.109783  0.152847  0.115250
    H   H174  0.592155  0.112221  0.093075  0.098569
    H   H175  0.582706  0.059267  0.055880  0.119601
    C   C288  0.994637  0.395638  0.072118  -0.412804
    C   C289  0.026807  0.389230  0.094464  0.369354
    C   C290  0.025446  0.370823  0.128110  -0.254231
    C   C291  0.055263  0.365625  0.148996  -0.097183
    C   C292  0.086433  0.378875  0.136403  -0.166558
    C   C293  0.087808  0.397332  0.102887  -0.068396
    C   C294  0.058039  0.402515  0.081942  -0.224977
    H   H176  0.971929  0.384709  0.087301  0.113654
    H   H177  0.990784  0.423946  0.070517  0.115226
    H   H178  0.001136  0.360402  0.138333  0.115625
    H   H179  0.054179  0.351205  0.175322  0.114586
    H   H180  0.109784  0.374845  0.152847  0.115244
    H   H181  0.112221  0.407845  0.093075  0.098588
    H   H182  0.059267  0.417294  0.055880  0.119591
    C   C295  0.395638  0.005363  0.072119  -0.412780
    C   C296  0.389230  0.973193  0.094464  0.369393
    C   C297  0.370823  0.974554  0.128110  -0.254263
    C   C298  0.365626  0.944737  0.148996  -0.097148
    C   C299  0.378875  0.913567  0.136403  -0.166589
    C   C300  0.397333  0.912192  0.102888  -0.068360
    C   C301  0.402515  0.941961  0.081942  -0.225019
    H   H183  0.384710  0.028071  0.087302  0.113655
    H   H184  0.423947  0.009216  0.070517  0.115209
    H   H185  0.360402  0.998864  0.138333  0.115630
    H   H186  0.351206  0.945821  0.175322  0.114575
    H   H187  0.374845  0.890217  0.152847  0.115252
    H   H188  0.407845  0.887779  0.093075  0.098581
    H   H189  0.417294  0.940733  0.055880  0.119602
    C   C302  0.005364  0.604362  0.072119  -0.412772
    C   C303  0.973193  0.610769  0.094464  0.369363
    C   C304  0.974554  0.629177  0.128110  -0.254255
    C   C305  0.944737  0.634374  0.148996  -0.097150
    C   C306  0.913567  0.621125  0.136403  -0.166587
    C   C307  0.912192  0.602667  0.102887  -0.068382
    C   C308  0.941961  0.597485  0.081942  -0.224993
    H   H190  0.028071  0.615290  0.087301  0.113668
    H   H191  0.009216  0.576053  0.070517  0.115199
    H   H192  0.998864  0.639598  0.138333  0.115630
    H   H193  0.945821  0.648794  0.175322  0.114574
    H   H194  0.890217  0.625155  0.152847  0.115254
    H   H195  0.887779  0.592155  0.093075  0.098590
    H   H196  0.940733  0.582706  0.055880  0.119591
    C   C309  0.604362  0.005363  0.927881  -0.412767
    C   C310  0.610770  0.973193  0.905536  0.369318
    C   C311  0.629177  0.974554  0.871889  -0.254201
    C   C312  0.634374  0.944737  0.851003  -0.097186
    C   C313  0.621125  0.913567  0.863596  -0.166568
    C   C314  0.602668  0.912192  0.897112  -0.068415
    C   C315  0.597485  0.941961  0.918057  -0.224928
    H   H197  0.615290  0.028072  0.912699  0.113658
    H   H198  0.576053  0.009216  0.929483  0.115215
    H   H199  0.639598  0.998864  0.861665  0.115616
    H   H200  0.648794  0.945821  0.824677  0.114582
    H   H201  0.625155  0.890217  0.847152  0.115252
    H   H202  0.592155  0.887779  0.906925  0.098592
    H   H203  0.582706  0.940733  0.944119  0.119571
    C   C316  0.994636  0.604361  0.927881  -0.412812
    C   C317  0.026807  0.610769  0.905536  0.369366
    C   C318  0.025446  0.629177  0.871889  -0.254254
    C   C319  0.055263  0.634374  0.851003  -0.097158
    C   C320  0.086433  0.621124  0.863596  -0.166611
    C   C321  0.087807  0.602667  0.897112  -0.068346
    C   C322  0.058039  0.597485  0.918057  -0.224976
    H   H204  0.971928  0.615290  0.912698  0.113671
    H   H205  0.990784  0.576053  0.929483  0.115230
    H   H206  0.001135  0.639598  0.861666  0.115627
    H   H207  0.054179  0.648794  0.824677  0.114584
    H   H208  0.109783  0.625154  0.847152  0.115261
    H   H209  0.112221  0.592155  0.906924  0.098570
    H   H210  0.059267  0.582706  0.944119  0.119576
    C   C323  0.395638  0.994636  0.927881  -0.412792
    C   C324  0.389231  0.026807  0.905536  0.369349
    C   C325  0.370823  0.025446  0.871889  -0.254244
    C   C326  0.365626  0.055263  0.851003  -0.097167
    C   C327  0.378876  0.086433  0.863596  -0.166609
    C   C328  0.397333  0.087807  0.897112  -0.068344
    C   C329  0.402515  0.058039  0.918057  -0.224962
    H   H211  0.384710  0.971928  0.912699  0.113674
    H   H212  0.423947  0.990783  0.929483  0.115212
    H   H213  0.360402  0.001136  0.861666  0.115626
    H   H214  0.351206  0.054179  0.824677  0.114586
    H   H215  0.374846  0.109783  0.847152  0.115261
    H   H216  0.407845  0.112221  0.906925  0.098569
    H   H217  0.417294  0.059266  0.944119  0.119573
    C   C330  0.005364  0.395638  0.927881  -0.412775
    C   C331  0.973193  0.389230  0.905536  0.369322
    C   C332  0.974554  0.370823  0.871889  -0.254212
    C   C333  0.944737  0.365626  0.851003  -0.097188
    C   C334  0.913567  0.378875  0.863596  -0.166577
    C   C335  0.912193  0.397332  0.897112  -0.068395
    C   C336  0.941961  0.402515  0.918057  -0.224922
    H   H218  0.028072  0.384710  0.912698  0.113667
    H   H219  0.009217  0.423947  0.929483  0.115214
    H   H220  0.998865  0.360402  0.861666  0.115617
    H   H221  0.945821  0.351205  0.824677  0.114585
    H   H222  0.890217  0.374845  0.847152  0.115259
    H   H223  0.887779  0.407845  0.906924  0.098577
    H   H224  0.940733  0.417293  0.944119  0.119569
