# Generated by REPEAT Assigner based on pymatgen
data_DB0-m3_o3_o9_f0_nbo.sym.35_sqe
_audit_creation_date              2022-05-24
_audit_creation_method            REPEAT_Assigner
_cell_length_a                    44.183334
_cell_length_b                    38.851998
_cell_length_c                    21.802177
_cell_angle_alpha                 90.000000
_cell_angle_beta                  61.447391
_cell_angle_gamma                 90.000000
_cell_volume                      32874.069187
_symmetry_space_group_name_H-M    P1
_symmetry_Int_Tables_number       1
loop_
    _symmetry_equiv_pos_site_id
    _symmetry_equiv_pos_as_xyz
    1  x,y,z
loop_
    _atom_site_type_symbol
    _atom_site_label
    _atom_site_fract_x
    _atom_site_fract_y
    _atom_site_fract_z
    _atom_type_partial_charge
    C   C1    0.066017  0.504818  0.441645  0.643464
    C   C2    0.079762  0.584156  0.284354  -0.051833
    C   C3    0.119768  0.998680  0.825654  -0.131103
    C   C4    0.393260  0.496530  0.120550  0.093519
    C   C5    0.603538  0.498582  0.897811  -0.013658
    C   C6    0.893260  0.996530  0.120551  0.093521
    C   C7    0.103538  0.998582  0.897811  -0.013644
    C   C8    0.267786  0.531318  0.258718  -0.145799
    C   C9    0.731459  0.523369  0.802690  -0.162594
    C   C10   0.767786  0.031318  0.258718  -0.145789
    C   C11   0.231459  0.023369  0.802690  -0.162571
    C   C12   0.232290  0.532868  0.291230  -0.204482
    C   C13   0.437439  0.110068  0.751957  -0.063463
    C   C14   0.766972  0.523018  0.766901  -0.198885
    C   C15   0.732290  0.032868  0.291230  -0.204491
    C   C16   0.266972  0.023018  0.766901  -0.198891
    C   C17   0.213045  0.503308  0.300960  0.144185
    C   C18   0.784173  0.501706  0.709995  0.089236
    C   C19   0.713045  0.003308  0.300960  0.144196
    C   C20   0.284173  0.001706  0.709995  0.089177
    C   C21   0.229887  0.471914  0.282286  -0.171672
    C   C22   0.765588  0.481981  0.686995  -0.087541
    C   C23   0.729887  0.971914  0.282286  -0.171666
    C   C24   0.579762  0.084156  0.284354  -0.051732
    C   C25   0.265588  0.981981  0.686995  -0.087525
    C   C26   0.265362  0.470519  0.247623  -0.080677
    C   C27   0.730075  0.482452  0.722448  -0.169568
    C   C28   0.765362  0.970519  0.247623  -0.080676
    C   C29   0.230075  0.982452  0.722448  -0.169543
    C   C30   0.284437  0.500256  0.235018  0.054110
    C   C31   0.712744  0.502779  0.781205  0.131605
    C   C32   0.784437  0.000256  0.235018  0.054103
    C   C33   0.212744  0.002779  0.781205  0.131581
    C   C34   0.156564  0.485543  0.308511  -0.196582
    C   C35   0.959247  0.585191  0.753633  -0.206882
    C   C36   0.840050  0.469944  0.666625  -0.147200
    C   C37   0.656564  0.985543  0.308511  -0.196593
    C   C38   0.340050  0.969944  0.666625  -0.147217
    C   C39   0.121024  0.484529  0.346645  -0.170929
    C   C40   0.875685  0.470259  0.629101  -0.199114
    C   C41   0.621024  0.984529  0.346645  -0.170911
    C   C42   0.375685  0.970259  0.629101  -0.199177
    C   C43   0.103629  0.505231  0.404260  0.183706
    C   C44   0.893408  0.500573  0.601640  0.131787
    C   C45   0.603629  0.005231  0.404260  0.183699
    C   C46   0.051692  0.567605  0.286465  -0.152586
    C   C47   0.393408  0.000573  0.601640  0.131883
    C   C48   0.121765  0.526880  0.424765  -0.215398
    C   C49   0.875246  0.530677  0.610233  0.062565
    C   C50   0.621765  0.026880  0.424765  -0.215379
    C   C51   0.375246  0.030677  0.610233  0.062457
    C   C52   0.157264  0.526137  0.390475  0.073207
    C   C53   0.839797  0.530436  0.646124  -0.110796
    C   C54   0.657264  0.026137  0.390475  0.073195
    C   C55   0.339797  0.030436  0.646124  -0.110758
    C   C56   0.175142  0.505192  0.332761  -0.020814
    C   C57   0.459247  0.085191  0.753633  -0.206870
    C   C58   0.821923  0.500370  0.674266  0.033075
    C   C59   0.675142  0.005192  0.332761  -0.020814
    C   C60   0.321923  0.000370  0.674266  0.033153
    C   C61   0.999303  0.429285  0.003861  0.622532
    C   C62   0.499303  0.929285  0.003861  0.622365
    C   C63   0.999580  0.496422  0.883137  0.648457
    C   C64   0.998897  0.496671  0.123711  0.609491
    C   C65   0.499580  0.996422  0.883137  0.648365
    C   C66   0.498897  0.996672  0.123711  0.609376
    C   C67   0.999222  0.564108  0.003072  0.617595
    C   C68   0.551692  0.067605  0.286465  -0.152639
    C   C69   0.499222  0.064108  0.003072  0.617475
    C   C70   0.499078  0.429132  0.008269  0.643810
    C   C71   0.999078  0.929132  0.008269  0.643864
    C   C72   0.430932  0.495949  0.080072  0.702155
    C   C73   0.565808  0.497250  0.938354  0.717603
    C   C74   0.930932  0.995949  0.080072  0.702159
    C   C75   0.065808  0.997250  0.938354  0.717558
    C   C76   0.497649  0.563867  0.010007  0.657462
    C   C77   0.997649  0.063866  0.010007  0.657358
    C   C78   0.528372  0.619690  0.977550  -0.268508
    C   C79   0.954827  0.551141  0.741880  0.216964
    C   C80   0.466356  0.619435  0.040337  -0.208679
    C   C81   0.028372  0.119690  0.977550  -0.268548
    C   C82   0.966356  0.119435  0.040337  -0.208716
    C   C83   0.527902  0.655208  0.979042  -0.063044
    C   C84   0.466489  0.654962  0.038150  -0.097937
    C   C85   0.027902  0.155208  0.979042  -0.063083
    C   C86   0.966489  0.154962  0.038150  -0.097925
    C   C87   0.497130  0.672958  0.008570  0.082022
    C   C88   0.997130  0.172958  0.008570  0.082028
    C   C89   0.497448  0.601541  0.009232  0.186309
    C   C90   0.055410  0.535462  0.256892  0.308487
    C   C91   0.997448  0.101541  0.009232  0.186395
    C   C92   0.474372  0.728767  0.993958  -0.087404
    C   C93   0.519894  0.728672  0.023223  -0.067066
    C   C94   0.974372  0.228767  0.993958  -0.087452
    C   C95   0.019894  0.228672  0.023223  -0.067147
    C   C96   0.974664  0.264254  0.993253  -0.155996
    C   C97   0.020026  0.264138  0.023052  -0.165668
    C   C98   0.474664  0.764254  0.993253  -0.156045
    C   C99   0.520026  0.764138  0.023052  -0.165690
    C   C100  0.997505  0.282249  0.007794  0.073922
    C   C101  0.454827  0.051141  0.741880  0.216946
    C   C102  0.497505  0.782249  0.007794  0.073955
    C   C103  0.497084  0.710741  0.008661  -0.010101
    C   C104  0.997084  0.210740  0.008661  -0.010062
    C   C105  0.028738  0.337813  0.981729  -0.122831
    C   C106  0.967556  0.338512  0.031194  -0.147928
    C   C107  0.528738  0.837813  0.981729  -0.122799
    C   C108  0.467556  0.838512  0.031194  -0.148061
    C   C109  0.029167  0.373278  0.981081  -0.177698
    C   C110  0.967997  0.373983  0.030136  -0.109670
    C   C111  0.529167  0.873278  0.981081  -0.177770
    C   C112  0.931212  0.500961  0.565782  0.606409
    C   C113  0.555410  0.035463  0.256892  0.308520
    C   C114  0.467997  0.873983  0.030136  -0.109683
    C   C115  0.998797  0.391579  0.005168  0.182427
    C   C116  0.498797  0.891579  0.005168  0.182605
    C   C117  0.997928  0.320116  0.006904  0.046548
    C   C118  0.497928  0.820117  0.006904  0.046548
    C   C119  0.502454  0.373492  0.950940  -0.164692
    C   C120  0.497471  0.373456  0.064805  -0.173603
    C   C121  0.002454  0.873492  0.950940  -0.164701
    C   C122  0.997471  0.873456  0.064805  -0.173603
    C   C123  0.502978  0.338052  0.950426  -0.115920
    C   C124  0.927849  0.541977  0.730059  -0.132486
    C   C125  0.497690  0.337954  0.064516  -0.112883
    C   C126  0.002978  0.838052  0.950426  -0.115905
    C   C127  0.997690  0.837954  0.064516  -0.112886
    C   C128  0.500418  0.319981  0.007318  -0.000663
    C   C129  0.000418  0.819981  0.007318  -0.000671
    C   C130  0.499692  0.391419  0.008113  0.121664
    C   C131  0.999692  0.891419  0.008113  0.121645
    C   C132  0.483753  0.264366  0.976792  -0.089338
    C   C133  0.517149  0.263925  0.036433  -0.104961
    C   C134  0.983753  0.764366  0.976792  -0.089360
    C   C135  0.087546  0.520405  0.223260  -0.267890
    C   C136  0.017149  0.763925  0.036433  -0.104979
    C   C137  0.983887  0.728933  0.976000  -0.114720
    C   C138  0.017166  0.728460  0.035744  -0.073895
    C   C139  0.483887  0.228934  0.976000  -0.114694
    C   C140  0.517166  0.228460  0.035744  -0.073980
    C   C141  0.000567  0.710905  0.005468  -0.037967
    C   C142  0.500567  0.210905  0.005468  -0.037834
    C   C143  0.500440  0.282153  0.006912  0.150037
    C   C144  0.000440  0.782153  0.006912  0.150074
    C   C145  0.030314  0.655068  0.961742  -0.232025
    C   C146  0.427849  0.041977  0.730059  -0.132624
    C   C147  0.970118  0.655391  0.047439  -0.248335
    C   C148  0.530314  0.155068  0.961742  -0.231993
    C   C149  0.470118  0.155391  0.047439  -0.248481
    C   C150  0.029802  0.619493  0.962637  -0.089461
    C   C151  0.969923  0.619875  0.044976  -0.077900
    C   C152  0.529802  0.119493  0.962637  -0.089437
    C   C153  0.469923  0.119875  0.044976  -0.077804
    C   C154  0.999673  0.601849  0.003396  0.064086
    C   C155  0.499673  0.101849  0.003396  0.064037
    C   C156  0.000383  0.673251  0.005002  0.186865
    C   C157  0.587546  0.020405  0.223260  -0.267778
    C   C158  0.500383  0.173251  0.005002  0.186842
    C   C159  0.887120  0.627483  0.738652  0.729560
    C   C160  0.838761  0.643238  0.725986  0.341654
    C   C161  0.813201  0.626651  0.707483  -0.376358
    C   C162  0.142178  0.587404  0.245415  0.804018
    C   C163  0.202633  0.593500  0.193601  0.517693
    C   C164  0.234749  0.574325  0.142968  -0.388872
    C   C165  0.387120  0.127483  0.738652  0.729631
    C   C166  0.338761  0.143238  0.725986  0.341626
    C   C167  0.313201  0.126651  0.707483  -0.376355
    C   C168  0.905841  0.566813  0.728857  -0.018072
    C   C169  0.642178  0.087404  0.245415  0.803981
    C   C170  0.702633  0.093500  0.193601  0.517675
    C   C171  0.734749  0.074325  0.142968  -0.388877
    C   C172  0.172981  0.467378  0.241042  0.832282
    C   C173  0.218251  0.462251  0.125177  0.419305
    C   C174  0.250569  0.481436  0.075497  -0.337892
    C   C175  0.822783  0.437574  0.700669  0.737789
    C   C176  0.775581  0.408245  0.791466  0.385391
    C   C177  0.741503  0.417110  0.854328  -0.313329
    C   C178  0.672981  0.967378  0.241042  0.832319
    C   C179  0.115777  0.537130  0.220041  0.006046
    C   C180  0.718251  0.962251  0.125177  0.419316
    C   C181  0.750569  0.981436  0.075497  -0.337862
    C   C182  0.322783  0.937574  0.700669  0.737770
    C   C183  0.275581  0.908245  0.791466  0.385375
    C   C184  0.241503  0.917110  0.854328  -0.313339
    C   C185  0.562089  0.602317  0.941280  0.772424
    C   C186  0.622062  0.602542  0.901498  0.430717
    C   C187  0.649072  0.625904  0.903109  -0.386511
    C   C188  0.432865  0.601707  0.077243  0.690907
    C   C189  0.372927  0.600613  0.117020  0.489367
    C   C190  0.405841  0.066813  0.728857  -0.017718
    C   C191  0.345543  0.622763  0.113827  -0.498562
    C   C192  0.062089  0.102317  0.941280  0.772459
    C   C193  0.122062  0.102542  0.901498  0.430764
    C   C194  0.149072  0.125904  0.903109  -0.386498
    C   C195  0.932865  0.101707  0.077243  0.690927
    C   C196  0.872927  0.100613  0.117020  0.489392
    C   C197  0.845543  0.122763  0.113827  -0.498553
    C   C198  0.062815  0.672353  0.913065  0.788011
    C   C199  0.092724  0.720438  0.843438  0.339421
    C   C200  0.084322  0.755979  0.827377  -0.253013
    C   C201  0.615777  0.037130  0.220041  0.005991
    C   C202  0.937946  0.672955  0.096827  0.812720
    C   C203  0.908952  0.720633  0.168998  0.362905
    C   C204  0.918011  0.755367  0.187230  -0.275705
    C   C205  0.562815  0.172353  0.913065  0.788005
    C   C206  0.592724  0.220438  0.843438  0.339441
    C   C207  0.584322  0.255979  0.827377  -0.253053
    C   C208  0.437946  0.172955  0.096827  0.812979
    C   C209  0.408952  0.220633  0.168998  0.362952
    C   C210  0.418011  0.255367  0.187230  -0.275617
    C   C211  0.093287  0.470391  0.677313  0.883701
    C   C212  0.910619  0.601003  0.739504  -0.168235
    C   C213  0.141645  0.486280  0.570779  0.514596
    C   C214  0.171517  0.469111  0.509294  -0.336573
    C   C215  0.899590  0.494734  0.334805  0.880864
    C   C216  0.856894  0.520442  0.438680  0.600938
    C   C217  0.823617  0.510253  0.502165  -0.457176
    C   C218  0.593287  0.970391  0.677313  0.883648
    C   C219  0.641645  0.986280  0.570779  0.514628
    C   C220  0.671517  0.969111  0.509294  -0.336583
    C   C221  0.399590  0.994734  0.334805  0.880817
    C   C222  0.356894  0.020442  0.438680  0.600942
    C   C223  0.566017  0.004818  0.441645  0.643468
    C   C224  0.111993  0.569068  0.250735  -0.239490
    C   C225  0.323617  0.010253  0.502165  -0.457173
    C   C226  0.410619  0.101003  0.739504  -0.168496
    C   C227  0.611993  0.069068  0.250735  -0.239516
    C   C228  0.978739  0.522313  0.808524  -0.327403
    C   C229  0.025664  0.515032  0.193934  -0.310684
    C   C230  0.478739  0.022313  0.808524  -0.327255
    C   C231  0.525664  0.015032  0.193934  -0.310321
    C   C232  0.998830  0.497645  0.817036  0.252301
    C   C233  0.999503  0.497310  0.190172  0.261248
    C   C234  0.498830  0.997645  0.817036  0.252220
    C   C235  0.431212  0.000961  0.565782  0.606440
    C   C236  0.499503  0.997310  0.190172  0.261088
    C   C237  0.017676  0.474902  0.763370  -0.187191
    C   C238  0.974278  0.481140  0.249296  -0.197503
    C   C239  0.517676  0.974902  0.763370  -0.187224
    C   C240  0.474278  0.981140  0.249296  -0.197455
    C   C241  0.015532  0.476772  0.702511  -0.191829
    C   C242  0.975648  0.483278  0.310947  -0.198656
    C   C243  0.515532  0.976772  0.702511  -0.191816
    C   C244  0.475648  0.983278  0.310947  -0.198658
    C   C245  0.996054  0.501873  0.693212  0.118471
    C   C246  0.996399  0.503171  0.625938  0.702715
    C   C247  0.000658  0.502461  0.315468  0.177145
    C   C248  0.496054  0.001873  0.693212  0.118487
    C   C249  0.500658  0.002461  0.315468  0.177262
    C   C250  0.977371  0.524903  0.746825  -0.023358
    C   C251  0.026104  0.518234  0.256448  -0.082080
    C   C252  0.477371  0.024903  0.746825  -0.023411
    C   C253  0.526104  0.018234  0.256448  -0.082406
    C   C254  0.072804  0.443393  0.727483  -0.294828
    C   C255  0.913055  0.463977  0.290429  -0.286249
    C   C256  0.572804  0.943393  0.727483  -0.294832
    C   C257  0.001114  0.502466  0.381766  0.625402
    C   C258  0.413055  0.963977  0.290429  -0.286241
    C   C259  0.089433  0.413874  0.730810  -0.108643
    C   C260  0.889761  0.439713  0.292212  -0.090778
    C   C261  0.589433  0.913874  0.730810  -0.108653
    C   C262  0.389761  0.939713  0.292212  -0.090785
    C   C263  0.071385  0.387982  0.777104  -0.106148
    C   C264  0.900968  0.410694  0.251075  -0.146722
    C   C265  0.571385  0.887982  0.777104  -0.106121
    C   C266  0.400968  0.910694  0.251075  -0.146654
    C   C267  0.036490  0.391247  0.820144  -0.092224
    C   C268  0.496399  0.003171  0.625938  0.702746
    C   C269  0.935617  0.405464  0.208263  -0.067498
    C   C270  0.536490  0.891247  0.820144  -0.092274
    C   C271  0.435617  0.905464  0.208263  -0.067569
    C   C272  0.019661  0.420537  0.817464  -0.168715
    C   C273  0.959090  0.429271  0.206443  -0.148694
    C   C274  0.519661  0.920537  0.817464  -0.168674
    C   C275  0.459090  0.929271  0.206443  -0.148640
    C   C276  0.037505  0.446719  0.771400  0.375430
    C   C277  0.948152  0.458648  0.247069  0.347754
    C   C278  0.537505  0.946719  0.771400  0.375445
    C   C279  0.501114  0.002466  0.381766  0.625346
    C   C280  0.448152  0.958648  0.247069  0.347695
    C   C281  0.373563  0.482962  0.092747  -0.162678
    C   C282  0.623223  0.500250  0.931488  -0.055913
    C   C283  0.873563  0.982962  0.092747  -0.162688
    C   C284  0.123223  0.000250  0.931488  -0.055903
    C   C285  0.338106  0.483494  0.130885  -0.149717
    C   C286  0.658642  0.501934  0.893536  -0.168202
    C   C287  0.838106  0.983494  0.130885  -0.149721
    C   C288  0.158642  0.001934  0.893536  -0.168220
    C   C289  0.322061  0.498845  0.195840  0.100147
    C   C290  0.937439  0.610068  0.751957  -0.063542
    C   C291  0.674927  0.501836  0.821383  0.044014
    C   C292  0.822061  0.998845  0.195840  0.100161
    C   C293  0.174927  0.001836  0.821383  0.044029
    C   C294  0.341692  0.513009  0.223137  -0.153894
    C   C295  0.655225  0.500179  0.787727  -0.138662
    C   C296  0.841692  0.013009  0.223137  -0.153913
    C   C297  0.155225  0.000179  0.787727  -0.138678
    C   C298  0.377160  0.511181  0.186315  -0.192616
    C   C299  0.619768  0.498680  0.825654  -0.131113
    C   C300  0.877160  0.011180  0.186315  -0.192580
    H   H1    0.941603  0.636594  0.760842  0.129841
    H   H2    0.090686  0.495451  0.199027  0.138256
    H   H3    0.443017  0.825458  0.052640  0.111670
    H   H4    0.053652  0.386362  0.960811  0.131805
    H   H5    0.943859  0.387648  0.049472  0.108109
    H   H6    0.553652  0.886362  0.960811  0.131826
    H   H7    0.443859  0.887648  0.049472  0.108133
    H   H8    0.504648  0.386863  0.905545  0.128893
    H   H9    0.495006  0.386862  0.110388  0.133086
    H   H10   0.004648  0.886863  0.905545  0.128898
    H   H11   0.995006  0.886862  0.110388  0.133093
    H   H12   0.506088  0.324756  0.904250  0.106101
    H   H13   0.423513  0.015251  0.722836  0.072029
    H   H14   0.494872  0.324518  0.110337  0.105809
    H   H15   0.006088  0.824756  0.904250  0.106095
    H   H16   0.994872  0.824518  0.110337  0.105808
    H   H17   0.469767  0.277870  0.954911  0.087685
    H   H18   0.531001  0.277121  0.058979  0.088639
    H   H19   0.969767  0.777870  0.954911  0.087680
    H   H20   0.031001  0.777121  0.058979  0.088639
    H   H21   0.970693  0.715239  0.952585  0.095763
    H   H22   0.030327  0.714385  0.058761  0.078276
    H   H23   0.470693  0.215239  0.952585  0.095698
    H   H24   0.590686  0.995451  0.199027  0.138229
    H   H25   0.530327  0.214385  0.058761  0.078302
    H   H26   0.052917  0.605371  0.929003  0.157277
    H   H27   0.946514  0.606067  0.078159  0.152943
    H   H28   0.552917  0.105371  0.929003  0.157267
    H   H29   0.446514  0.106067  0.078159  0.152913
    H   H30   0.852930  0.663724  0.687357  0.006011
    H   H31   0.824649  0.654563  0.779032  0.006034
    H   H32   0.827015  0.616982  0.653069  0.113104
    H   H33   0.793770  0.645971  0.711983  0.080998
    H   H34   0.800152  0.604976  0.743696  0.111232
    H   H35   0.884644  0.559109  0.720445  0.009220
    H   H36   0.202664  0.596707  0.244070  -0.071473
    H   H37   0.202441  0.619155  0.171464  -0.027382
    H   H38   0.233946  0.547784  0.162181  0.105273
    H   H39   0.257859  0.587793  0.138447  0.074607
    H   H40   0.235902  0.573296  0.091073  0.102044
    H   H41   0.352930  0.163724  0.687357  0.006014
    H   H42   0.324649  0.154563  0.779033  0.006037
    H   H43   0.327015  0.116982  0.653069  0.113109
    H   H44   0.293770  0.145971  0.711983  0.080997
    H   H45   0.300152  0.104976  0.743696  0.111231
    H   H46   0.140760  0.524956  0.193178  0.075302
    H   H47   0.702664  0.096707  0.244070  -0.071469
    H   H48   0.702441  0.119155  0.171464  -0.027380
    H   H49   0.733946  0.047784  0.162181  0.105268
    H   H50   0.757859  0.087793  0.138447  0.074612
    H   H51   0.735902  0.073296  0.091073  0.102044
    H   H52   0.200824  0.460346  0.101868  -0.026807
    H   H53   0.225446  0.436114  0.134190  -0.041605
    H   H54   0.243406  0.506544  0.061953  0.089309
    H   H55   0.265084  0.466050  0.027276  0.074634
    H   H56   0.266838  0.485762  0.100833  0.081283
    H   H57   0.384644  0.059109  0.720445  0.009069
    H   H58   0.791639  0.393503  0.808799  -0.017919
    H   H59   0.770683  0.392545  0.754617  -0.022625
    H   H60   0.746194  0.433256  0.890884  0.078293
    H   H61   0.728111  0.393102  0.881009  0.068075
    H   H62   0.725250  0.431543  0.837081  0.093536
    H   H63   0.700824  0.960346  0.101868  -0.026813
    H   H64   0.725446  0.936114  0.134190  -0.041611
    H   H65   0.743406  0.006544  0.061953  0.089301
    H   H66   0.765084  0.966050  0.027276  0.074626
    H   H67   0.766838  0.985762  0.100833  0.081277
    H   H68   0.640760  0.024956  0.193178  0.075301
    H   H69   0.291639  0.893503  0.808799  -0.017913
    H   H70   0.270683  0.892545  0.754617  -0.022619
    H   H71   0.246194  0.933256  0.890884  0.078296
    H   H72   0.228111  0.893102  0.881009  0.068077
    H   H73   0.225250  0.931543  0.837081  0.093540
    H   H74   0.628764  0.597426  0.846384  -0.025288
    H   H75   0.621471  0.577996  0.928010  0.003754
    H   H76   0.649852  0.650496  0.876570  0.113121
    H   H77   0.674619  0.613184  0.875861  0.076960
    H   H78   0.642501  0.631110  0.958095  0.095447
    H   H79   0.963877  0.539882  0.850807  0.174136
    H   H80   0.366241  0.596647  0.172467  -0.027418
    H   H81   0.373950  0.575408  0.092159  -0.001864
    H   H82   0.344332  0.647990  0.138694  0.126366
    H   H83   0.320208  0.609696  0.141926  0.117084
    H   H84   0.352046  0.626787  0.058523  0.121194
    H   H85   0.128764  0.097426  0.846384  -0.025299
    H   H86   0.121471  0.077996  0.928010  0.003745
    H   H87   0.149852  0.150496  0.876570  0.113113
    H   H88   0.174619  0.113184  0.875861  0.076956
    H   H89   0.142501  0.131109  0.958095  0.095443
    H   H90   0.045652  0.527376  0.147981  0.164633
    H   H91   0.866241  0.096647  0.172467  -0.027425
    H   H92   0.873950  0.075408  0.092160  -0.001872
    H   H93   0.844332  0.147990  0.138694  0.126364
    H   H94   0.820208  0.109696  0.141926  0.117077
    H   H95   0.852046  0.126787  0.058523  0.121190
    H   H96   0.106092  0.705484  0.794265  -0.000586
    H   H97   0.109605  0.722942  0.867901  -0.006651
    H   H98   0.066716  0.753697  0.804577  0.062643
    H   H99   0.108415  0.769043  0.789709  0.062651
    H   H100  0.071603  0.771226  0.876242  0.048885
    H   H101  0.463877  0.039882  0.850807  0.174081
    H   H102  0.895133  0.705106  0.217282  -0.006862
    H   H103  0.892279  0.724490  0.144397  -0.011940
    H   H104  0.935481  0.751752  0.210038  0.068254
    H   H105  0.894153  0.768545  0.225553  0.065495
    H   H106  0.931103  0.771244  0.139299  0.054628
    H   H107  0.606092  0.205484  0.794265  -0.000583
    H   H108  0.609605  0.222942  0.867901  -0.006651
    H   H109  0.566716  0.253697  0.804577  0.062654
    H   H110  0.608415  0.269043  0.789709  0.062659
    H   H111  0.571603  0.271226  0.876242  0.048897
    H   H112  0.076267  0.609340  0.307824  0.128511
    H   H113  0.545652  0.027376  0.147981  0.164541
    H   H114  0.395133  0.205106  0.217282  -0.006879
    H   H115  0.392279  0.224490  0.144397  -0.011968
    H   H116  0.435481  0.251752  0.210038  0.068235
    H   H117  0.394153  0.268545  0.225553  0.065470
    H   H118  0.431103  0.271244  0.139299  0.054610
    H   H119  0.151786  0.504878  0.595080  -0.049362
    H   H120  0.125599  0.499982  0.552035  -0.049127
    H   H121  0.186845  0.454101  0.528014  0.089700
    H   H122  0.188111  0.489009  0.471844  0.041786
    H   H123  0.161488  0.451656  0.482933  0.083251
    H   H124  0.029873  0.458546  0.661227  0.113165
    H   H125  0.851853  0.542079  0.411605  -0.051118
    H   H126  0.875810  0.528464  0.455746  -0.106098
    H   H127  0.804505  0.502264  0.485661  0.105002
    H   H128  0.813385  0.532433  0.538397  0.075244
    H   H129  0.828688  0.488471  0.528832  0.128221
    H   H130  0.651786  0.004878  0.595080  -0.049363
    H   H131  0.625599  0.999982  0.552035  -0.049145
    H   H132  0.686845  0.954101  0.528014  0.089698
    H   H133  0.688111  0.989009  0.471844  0.041786
    H   H134  0.661488  0.951656  0.482933  0.083252
    H   H135  0.956771  0.469701  0.356502  0.125443
    H   H136  0.351853  0.042079  0.411605  -0.051123
    H   H137  0.375810  0.028464  0.455746  -0.106098
    H   H138  0.304505  0.002264  0.485661  0.105001
    H   H139  0.313385  0.032433  0.538397  0.075242
    H   H140  0.328688  0.988471  0.528832  0.128212
    H   H141  0.529873  0.958546  0.661227  0.113178
    H   H142  0.456771  0.969701  0.356502  0.125445
    H   H143  0.116858  0.410929  0.697486  0.110215
    H   H144  0.862426  0.443496  0.325277  0.099507
    H   H145  0.616858  0.910929  0.697486  0.110221
    H   H146  0.362426  0.943496  0.325277  0.099503
    H   H147  0.084593  0.364972  0.779262  0.110301
    H   H148  0.441603  0.136594  0.760842  0.129855
    H   H149  0.882537  0.391928  0.252716  0.125260
    H   H150  0.584593  0.864972  0.779262  0.110295
    H   H151  0.382537  0.891928  0.252716  0.125239
    H   H152  0.022179  0.370577  0.855196  0.099843
    H   H153  0.944432  0.382372  0.177057  0.090212
    H   H154  0.522179  0.870577  0.855196  0.099858
    H   H155  0.444432  0.882372  0.177057  0.090231
    H   H156  0.992067  0.422443  0.850000  0.081836
    H   H157  0.986316  0.424391  0.174252  0.070925
    H   H158  0.492067  0.922443  0.850000  0.081835
    H   H159  0.576267  0.109340  0.307824  0.128482
    H   H160  0.486316  0.924391  0.174252  0.070935
    H   H161  0.385677  0.471257  0.041560  0.136921
    H   H162  0.611283  0.500190  0.987809  0.108853
    H   H163  0.885677  0.971257  0.041560  0.136927
    H   H164  0.111283  0.000190  0.987809  0.108853
    H   H165  0.322949  0.472605  0.108790  0.112257
    H   H166  0.673437  0.502436  0.921172  0.106736
    H   H167  0.822949  0.972605  0.108790  0.112257
    H   H168  0.173437  0.002436  0.921172  0.106743
    H   H169  0.329365  0.524960  0.274097  0.124952
    H   H170  0.980070  0.592560  0.763662  0.129070
    H   H171  0.667282  0.500682  0.731391  0.106588
    H   H172  0.829365  0.024960  0.274097  0.124957
    H   H173  0.167282  0.000682  0.731391  0.106592
    H   H174  0.392124  0.522206  0.208707  0.135490
    H   H175  0.605034  0.497673  0.797923  0.125757
    H   H176  0.892124  0.022206  0.208707  0.135470
    H   H177  0.105034  0.997673  0.797923  0.125756
    H   H178  0.282493  0.554800  0.249162  0.101802
    H   H179  0.718536  0.540120  0.847395  0.123915
    H   H180  0.782493  0.054800  0.249162  0.101799
    H   H181  0.026776  0.580030  0.310896  0.100133
    H   H182  0.218536  0.040120  0.847395  0.123903
    H   H183  0.219910  0.557667  0.306545  0.158815
    H   H184  0.781288  0.538846  0.784861  0.128354
    H   H185  0.719910  0.057667  0.306545  0.158814
    H   H186  0.281288  0.038846  0.784861  0.128362
    H   H187  0.215462  0.448198  0.293091  0.115873
    H   H188  0.778809  0.465484  0.641968  0.097332
    H   H189  0.715461  0.948198  0.293091  0.115865
    H   H190  0.278809  0.965484  0.641968  0.097327
    H   H191  0.278146  0.445917  0.231034  0.087737
    H   H192  0.480070  0.092560  0.763662  0.129066
    H   H193  0.716120  0.465745  0.705116  0.118952
    H   H194  0.778146  0.945917  0.231034  0.087734
    H   H195  0.216120  0.965745  0.705116  0.118944
    H   H196  0.106369  0.469223  0.328715  0.161623
    H   H197  0.889823  0.446837  0.624206  0.165615
    H   H198  0.606369  0.969223  0.328715  0.161601
    H   H199  0.389823  0.946837  0.624206  0.165662
    H   H200  0.108276  0.543235  0.469948  0.131063
    H   H201  0.888435  0.554695  0.588914  0.051914
    H   H202  0.608276  0.043235  0.469948  0.131065
    H   H203  0.526776  0.080030  0.310896  0.100147
    H   H204  0.388435  0.054695  0.588914  0.051932
    H   H205  0.170851  0.541505  0.410776  0.045179
    H   H206  0.825857  0.553991  0.651163  0.084300
    H   H207  0.670851  0.041505  0.410776  0.045178
    H   H208  0.325857  0.053991  0.651163  0.084288
    H   H209  0.551892  0.669247  0.953661  0.094278
    H   H210  0.442371  0.668800  0.063308  0.106106
    H   H211  0.051892  0.169247  0.953661  0.094322
    H   H212  0.942371  0.168800  0.063308  0.106109
    H   H213  0.456811  0.715299  0.980908  0.104850
    H   H214  0.923513  0.515251  0.722836  0.071991
    H   H215  0.537319  0.715151  0.036576  0.096570
    H   H216  0.956811  0.215299  0.980908  0.104859
    H   H217  0.037319  0.215151  0.036576  0.096609
    H   H218  0.957370  0.277632  0.979364  0.114579
    H   H219  0.037493  0.277424  0.036589  0.118835
    H   H220  0.457370  0.777633  0.979364  0.114590
    H   H221  0.537493  0.777424  0.036589  0.118841
    H   H222  0.052965  0.324201  0.960779  0.109923
    H   H223  0.943017  0.325458  0.052640  0.111619
    H   H224  0.552965  0.824201  0.960779  0.109914
    O   O1    0.049628  0.534309  0.460191  -0.694364
    O   O2    0.000982  0.531953  0.411243  -0.662909
    O   O3    0.497140  0.033162  0.597662  -0.660995
    O   O4    0.500982  0.031953  0.411243  -0.662898
    O   O5    0.997236  0.473793  0.595634  -0.727892
    O   O6    0.999370  0.472570  0.410915  -0.691991
    O   O7    0.497236  0.973793  0.595634  -0.727920
    O   O8    0.499370  0.972570  0.410915  -0.691953
    O   O9    0.969817  0.445829  0.033524  -0.698642
    O   O10   0.029235  0.444945  0.973295  -0.678562
    O   O11   0.469817  0.945829  0.033524  -0.698595
    O   O12   0.947016  0.530811  0.552860  -0.695919
    O   O13   0.529235  0.944945  0.973295  -0.678516
    O   O14   0.970074  0.498104  0.940822  -0.733176
    O   O15   0.028450  0.496014  0.065897  -0.721859
    O   O16   0.470074  0.998104  0.940822  -0.733071
    O   O17   0.528450  0.996014  0.065897  -0.721787
    O   O18   0.029495  0.495105  0.882024  -0.661882
    O   O19   0.969034  0.497823  0.124628  -0.632601
    O   O20   0.529495  0.995105  0.882024  -0.661813
    O   O21   0.469034  0.997823  0.124628  -0.632470
    O   O22   0.969329  0.548423  0.034448  -0.660467
    O   O23   0.549628  0.034309  0.460191  -0.694402
    O   O24   0.028689  0.547547  0.972228  -0.671414
    O   O25   0.469329  0.048423  0.034448  -0.660346
    O   O26   0.528689  0.047547  0.972228  -0.671318
    O   O27   0.501102  0.445679  0.058686  -0.730556
    O   O28   0.496615  0.444814  0.957628  -0.708196
    O   O29   0.001102  0.945679  0.058686  -0.730578
    O   O30   0.996615  0.944814  0.957628  -0.708208
    O   O31   0.448816  0.497582  0.113780  -0.684936
    O   O32   0.547869  0.496156  0.904682  -0.669645
    O   O33   0.948816  0.997581  0.113780  -0.684939
    O   O34   0.447016  0.030811  0.552860  -0.695944
    O   O35   0.047869  0.996156  0.904682  -0.669642
    O   O36   0.445206  0.494647  0.011730  -0.723541
    O   O37   0.551481  0.498151  0.006706  -0.723051
    O   O38   0.945206  0.994647  0.011730  -0.723551
    O   O39   0.051481  0.998151  0.006706  -0.723048
    O   O40   0.500653  0.548308  0.060234  -0.701660
    O   O41   0.495033  0.547401  0.960180  -0.715597
    O   O42   0.000653  0.048308  0.060234  -0.701606
    O   O43   0.995033  0.047401  0.960180  -0.715530
    O   O44   0.890715  0.657412  0.750752  -0.584765
    O   O45   0.050355  0.474934  0.453127  -0.726564
    O   O46   0.861472  0.618837  0.724764  -0.382971
    O   O47   0.138490  0.614367  0.276848  -0.599097
    O   O48   0.174100  0.575206  0.203601  -0.512367
    O   O49   0.390715  0.157412  0.750752  -0.584781
    O   O50   0.361472  0.118837  0.724764  -0.382937
    O   O51   0.638490  0.114367  0.276848  -0.599085
    O   O52   0.674100  0.075206  0.203601  -0.512326
    O   O53   0.159005  0.442181  0.232373  -0.624510
    O   O54   0.202162  0.479657  0.187342  -0.371104
    O   O55   0.837184  0.410148  0.677643  -0.577826
    O   O56   0.947707  0.471477  0.549045  -0.683972
    O   O57   0.792119  0.438071  0.759407  -0.378341
    O   O58   0.659005  0.942181  0.232373  -0.624514
    O   O59   0.702162  0.979657  0.187342  -0.371126
    O   O60   0.337184  0.910148  0.677643  -0.577821
    O   O61   0.292119  0.938071  0.759407  -0.378327
    O   O62   0.565022  0.574563  0.912959  -0.487976
    O   O63   0.590450  0.618226  0.935443  -0.456830
    O   O64   0.430319  0.574419  0.106835  -0.460431
    O   O65   0.404291  0.616728  0.082174  -0.435616
    O   O66   0.065022  0.074563  0.912959  -0.487980
    O   O67   0.550355  0.974934  0.453127  -0.726525
    O   O68   0.090450  0.118226  0.935443  -0.456881
    O   O69   0.930319  0.074419  0.106835  -0.460442
    O   O70   0.904291  0.116728  0.082174  -0.435632
    O   O71   0.090041  0.656980  0.892075  -0.588099
    O   O72   0.062721  0.704189  0.888563  -0.399489
    O   O73   0.910407  0.658335  0.116676  -0.595682
    O   O74   0.938659  0.704142  0.123221  -0.410340
    O   O75   0.590041  0.156980  0.892075  -0.588104
    O   O76   0.562721  0.204189  0.888563  -0.399514
    O   O77   0.410407  0.158335  0.116676  -0.595748
    O   O78   0.447707  0.971477  0.549045  -0.684042
    O   O79   0.438659  0.204142  0.123221  -0.410484
    O   O80   0.084809  0.500560  0.688991  -0.594389
    O   O81   0.122218  0.461739  0.618732  -0.509379
    O   O82   0.914971  0.522077  0.317410  -0.592990
    O   O83   0.869504  0.492754  0.394598  -0.519566
    O   O84   0.584809  0.000560  0.688991  -0.594346
    O   O85   0.622218  0.961739  0.618732  -0.509377
    O   O86   0.414971  0.022077  0.317410  -0.592965
    O   O87   0.369504  0.992754  0.394599  -0.519542
    O   O88   0.997140  0.533162  0.597662  -0.660983
    Zn  Zn1   0.998046  0.541818  0.505192  1.321236
    Zn  Zn2   0.496143  0.496145  0.942027  1.353703
    Zn  Zn3   0.000539  0.996949  0.076359  1.365288
    Zn  Zn4   0.996143  0.996145  0.942027  1.353691
    Zn  Zn5   0.498046  0.041818  0.505192  1.321251
    Zn  Zn6   0.999319  0.463928  0.502494  1.358745
    Zn  Zn7   0.499319  0.963928  0.502494  1.358746
    Zn  Zn8   0.960268  0.497097  0.041542  1.321551
    Zn  Zn9   0.038274  0.496289  0.965120  1.324058
    Zn  Zn10  0.460268  0.997098  0.041542  1.321368
    Zn  Zn11  0.538274  0.996289  0.965120  1.323980
    Zn  Zn12  0.500539  0.496949  0.076359  1.365297
