# generated using pymatgen
data_Cu2H15C42(N3O7)4
_symmetry_space_group_name_H-M   'P 1'
_cell_length_a   28.17680000
_cell_length_b   17.37220000
_cell_length_c   15.85000000
_cell_angle_alpha   89.99440000
_cell_angle_beta   89.99310000
_cell_angle_gamma   89.86620000
_symmetry_Int_Tables_number   1
_chemical_formula_structural   Cu2H15C42(N3O7)4
_chemical_formula_sum   'Cu4 H30 C84 N24 O56'
_cell_volume   7758.44288054
_cell_formula_units_Z   2
loop_
 _symmetry_equiv_pos_site_id
 _symmetry_equiv_pos_as_xyz
  1  'x, y, z'
loop_
 _atom_site_type_symbol
 _atom_site_label
 _atom_site_symmetry_multiplicity
 _atom_site_fract_x
 _atom_site_fract_y
 _atom_site_fract_z
 _atom_site_occupancy
  Cu  Cu1  1  0.50001000  0.50000000  0.41971000  1
  Cu  Cu2  1  0.50000000  0.49999000  0.58029000  1
  Cu  Cu3  1  0.88346000  0.49944000  0.58030000  1
  Cu  Cu4  1  0.88346000  0.49999000  0.41972000  1
  H  H1  1  0.44696000  0.58616000  0.28476000  1
  H  H2  1  0.55306000  0.41384000  0.28474000  1
  H  H3  1  0.44692000  0.58612000  0.71525000  1
  H  H4  1  0.55306000  0.41386000  0.71525000  1
  H  H5  1  0.49994000  0.25981000  0.36670000  1
  H  H6  1  0.50013000  0.25977000  0.63331000  1
  H  H7  1  0.49983000  0.74021000  0.36668000  1
  H  H8  1  0.50008000  0.74019000  0.63329000  1
  H  H9  1  0.73406000  0.44954000  0.31064000  1
  H  H10  1  0.73419000  0.55051000  0.31135000  1
  H  H11  1  0.64943000  0.55061000  0.31082000  1
  H  H12  1  0.64931000  0.44963000  0.31114000  1
  H  H13  1  0.03154000  0.49967000  0.63332000  1
  H  H14  1  0.03157000  0.49996000  0.36670000  1
  H  H15  1  0.35190000  0.50002000  0.63332000  1
  H  H16  1  0.35191000  0.50023000  0.36671000  1
  H  H17  1  0.93630000  0.58849000  0.71559000  1
  H  H18  1  0.83060000  0.41633000  0.71494000  1
  H  H19  1  0.93634000  0.58649000  0.28510000  1
  H  H20  1  0.83060000  0.41440000  0.28442000  1
  H  H21  1  0.88176000  0.25907000  0.63629000  1
  H  H22  1  0.88157000  0.25994000  0.36968000  1
  H  H23  1  0.88307000  0.73946000  0.63427000  1
  H  H24  1  0.88283000  0.74036000  0.36766000  1
  H  H25  1  0.65249000  0.45430000  0.68570000  1
  H  H26  1  0.60878000  0.49969000  0.64983000  1
  H  H27  1  0.65250000  0.54454000  0.68596000  1
  H  H28  1  0.73095000  0.54453000  0.68590000  1
  H  H29  1  0.77466000  0.49924000  0.64985000  1
  H  H30  1  0.73091000  0.45429000  0.68578000  1
  C  C1  1  0.58901000  0.49982000  0.50000000  1
  C  C2  1  0.41099000  0.50016000  0.50001000  1
  C  C3  1  0.49995000  0.64436000  0.49999000  1
  C  C4  1  0.50006000  0.35563000  0.50001000  1
  C  C5  1  0.79445000  0.49967000  0.50001000  1
  C  C6  1  0.97247000  0.49975000  0.50000000  1
  C  C7  1  0.88318000  0.64408000  0.50059000  1
  C  C8  1  0.88374000  0.35534000  0.49943000  1
  C  C9  1  0.46954000  0.54948000  0.25392000  1
  C  C10  1  0.46944000  0.54962000  0.16508000  1
  C  C11  1  0.50000000  0.49999000  0.12006000  1
  C  C12  1  0.53056000  0.45037000  0.16507000  1
  C  C13  1  0.53047000  0.45052000  0.25391000  1
  C  C14  1  0.49999000  0.50000000  0.03772000  1
  C  C15  1  0.49999000  0.50000000  0.96228000  1
  C  C16  1  0.49999000  0.49999000  0.87995000  1
  C  C17  1  0.46942000  0.54960000  0.83493000  1
  C  C18  1  0.46951000  0.54945000  0.74608000  1
  C  C19  1  0.53047000  0.45053000  0.74608000  1
  C  C20  1  0.53056000  0.45038000  0.83493000  1
  C  C21  1  0.50004000  0.27406000  0.50001000  1
  C  C22  1  0.49998000  0.23168000  0.42345000  1
  C  C23  1  0.49996000  0.15062000  0.42322000  1
  C  C24  1  0.50001000  0.10953000  0.49999000  1
  C  C25  1  0.50007000  0.15059000  0.57678000  1
  C  C26  1  0.50009000  0.23165000  0.57656000  1
  C  C27  1  0.50000000  0.03441000  0.49999000  1
  C  C28  1  0.49999000  0.96558000  0.49998000  1
  C  C29  1  0.49998000  0.89046000  0.49998000  1
  C  C30  1  0.49990000  0.84939000  0.42320000  1
  C  C31  1  0.49989000  0.76833000  0.42343000  1
  C  C32  1  0.49995000  0.72593000  0.49999000  1
  C  C33  1  0.50003000  0.76832000  0.57654000  1
  C  C34  1  0.50004000  0.84938000  0.57677000  1
  C  C35  1  0.74355000  0.49971000  0.50001000  1
  C  C36  1  0.63991000  0.49979000  0.50000000  1
  C  C37  1  0.71760000  0.49984000  0.43337000  1
  C  C38  1  0.66586000  0.49965000  0.56664000  1
  C  C39  1  0.66587000  0.49988000  0.43337000  1
  C  C40  1  0.71759000  0.49962000  0.56664000  1
  C  C41  1  0.71651000  0.50001000  0.33860000  1
  C  C42  1  0.66698000  0.50004000  0.33860000  1
  C  C43  1  0.02276000  0.49980000  0.50001000  1
  C  C44  1  0.04889000  0.49975000  0.57656000  1
  C  C45  1  0.09887000  0.49980000  0.57679000  1
  C  C46  1  0.12420000  0.49991000  0.50002000  1
  C  C47  1  0.09888000  0.49997000  0.42323000  1
  C  C48  1  0.04891000  0.49992000  0.42346000  1
  C  C49  1  0.17051000  0.49996000  0.50002000  1
  C  C50  1  0.21295000  0.50000000  0.50003000  1
  C  C51  1  0.25926000  0.50004000  0.50002000  1
  C  C52  1  0.28459000  0.50000000  0.57680000  1
  C  C53  1  0.33456000  0.50005000  0.57657000  1
  C  C54  1  0.36070000  0.50013000  0.50001000  1
  C  C55  1  0.33457000  0.50017000  0.42346000  1
  C  C56  1  0.28459000  0.50012000  0.42324000  1
  C  C57  1  0.91380000  0.55174000  0.74629000  1
  C  C58  1  0.91390000  0.55158000  0.83513000  1
  C  C59  1  0.88346000  0.50184000  0.87996000  1
  C  C60  1  0.85302000  0.45242000  0.83475000  1
  C  C61  1  0.85310000  0.45287000  0.74591000  1
  C  C62  1  0.88347000  0.50156000  0.96230000  1
  C  C63  1  0.88347000  0.50130000  0.03773000  1
  C  C64  1  0.88347000  0.50102000  0.12007000  1
  C  C65  1  0.91392000  0.55042000  0.16528000  1
  C  C66  1  0.91383000  0.54997000  0.25412000  1
  C  C67  1  0.85311000  0.45114000  0.25374000  1
  C  C68  1  0.85302000  0.45130000  0.16489000  1
  C  C69  1  0.88163000  0.27377000  0.50304000  1
  C  C70  1  0.88179000  0.23112000  0.57943000  1
  C  C71  1  0.88200000  0.15006000  0.57934000  1
  C  C72  1  0.88204000  0.10924000  0.50240000  1
  C  C73  1  0.88188000  0.15057000  0.42578000  1
  C  C74  1  0.88168000  0.23163000  0.42632000  1
  C  C75  1  0.88223000  0.03412000  0.50212000  1
  C  C76  1  0.88240000  0.96529000  0.50186000  1
  C  C77  1  0.88258000  0.89017000  0.50156000  1
  C  C78  1  0.88276000  0.84884000  0.57818000  1
  C  C79  1  0.88295000  0.76778000  0.57763000  1
  C  C80  1  0.88298000  0.72565000  0.50091000  1
  C  C81  1  0.88281000  0.76830000  0.42452000  1
  C  C82  1  0.88261000  0.84936000  0.42461000  1
  C  C83  1  0.64270000  0.49953000  0.65551000  1
  C  C84  1  0.74074000  0.49940000  0.65552000  1
  N  N1  1  0.50001000  0.50000000  0.30038000  1
  N  N2  1  0.49999000  0.49999000  0.69962000  1
  N  N3  1  0.88345000  0.50247000  0.69964000  1
  N  N4  1  0.88347000  0.50039000  0.30039000  1
  N  N5  1  0.56381000  0.39636000  0.11908000  1
  N  N6  1  0.43618000  0.60363000  0.11911000  1
  N  N7  1  0.56383000  0.39639000  0.88091000  1
  N  N8  1  0.43615000  0.60359000  0.88091000  1
  N  N9  1  0.50012000  0.10863000  0.66034000  1
  N  N10  1  0.49989000  0.10868000  0.33965000  1
  N  N11  1  0.50012000  0.89132000  0.66033000  1
  N  N12  1  0.49983000  0.89135000  0.33964000  1
  N  N13  1  0.12475000  0.50009000  0.33967000  1
  N  N14  1  0.12472000  0.49974000  0.66036000  1
  N  N15  1  0.25873000  0.50017000  0.33968000  1
  N  N16  1  0.25872000  0.49992000  0.66037000  1
  N  N17  1  0.81989000  0.39830000  0.88053000  1
  N  N18  1  0.94704000  0.60538000  0.88131000  1
  N  N19  1  0.81988000  0.39751000  0.11870000  1
  N  N20  1  0.94707000  0.60452000  0.11951000  1
  N  N21  1  0.88193000  0.10889000  0.34206000  1
  N  N22  1  0.88216000  0.10784000  0.66274000  1
  N  N23  1  0.88244000  0.89159000  0.34122000  1
  N  N24  1  0.88273000  0.89051000  0.66190000  1
  O  O1  1  0.56171000  0.49997000  0.42512000  1
  O  O2  1  0.43817000  0.50025000  0.42513000  1
  O  O3  1  0.49988000  0.60030000  0.42512000  1
  O  O4  1  0.50001000  0.39992000  0.42513000  1
  O  O5  1  0.50011000  0.39969000  0.57488000  1
  O  O6  1  0.50001000  0.60007000  0.57487000  1
  O  O7  1  0.43824000  0.50012000  0.57488000  1
  O  O8  1  0.56183000  0.49972000  0.57487000  1
  O  O9  1  0.82175000  0.49952000  0.57489000  1
  O  O10  1  0.94529000  0.49961000  0.57488000  1
  O  O11  1  0.88335000  0.59976000  0.57529000  1
  O  O12  1  0.88369000  0.39938000  0.57449000  1
  O  O13  1  0.88359000  0.39966000  0.42473000  1
  O  O14  1  0.88322000  0.60004000  0.42553000  1
  O  O15  1  0.94522000  0.50001000  0.42513000  1
  O  O16  1  0.82163000  0.49978000  0.42514000  1
  O  O17  1  0.59063000  0.42394000  0.04484000  1
  O  O18  1  0.56946000  0.31606000  0.14842000  1
  O  O19  1  0.40936000  0.57605000  0.04489000  1
  O  O20  1  0.43054000  0.68393000  0.14844000  1
  O  O21  1  0.54680000  0.35291000  0.95515000  1
  O  O22  1  0.61333000  0.38717000  0.85156000  1
  O  O23  1  0.45318000  0.64707000  0.95512000  1
  O  O24  1  0.38665000  0.61281000  0.85158000  1
  O  O25  1  0.53115000  0.04077000  0.67255000  1
  O  O26  1  0.46915000  0.13552000  0.72970000  1
  O  O27  1  0.46884000  0.04109000  0.32742000  1
  O  O28  1  0.53088000  0.13532000  0.27029000  1
  O  O29  1  0.46911000  0.95917000  0.67272000  1
  O  O30  1  0.53121000  0.86443000  0.72952000  1
  O  O31  1  0.53085000  0.95894000  0.32724000  1
  O  O32  1  0.46873000  0.86471000  0.27045000  1
  O  O33  1  0.16660000  0.44981000  0.32732000  1
  O  O34  1  0.10817000  0.55048000  0.27045000  1
  O  O35  1  0.16639000  0.55010000  0.67272000  1
  O  O36  1  0.10831000  0.44931000  0.72958000  1
  O  O37  1  0.21689000  0.55047000  0.32742000  1
  O  O38  1  0.27533000  0.44991000  0.27035000  1
  O  O39  1  0.21705000  0.44954000  0.67263000  1
  O  O40  1  0.27513000  0.55021000  0.72969000  1
  O  O41  1  0.79300000  0.42566000  0.95488000  1
  O  O42  1  0.81443000  0.31811000  0.85087000  1
  O  O43  1  0.97393000  0.57750000  0.95542000  1
  O  O44  1  0.95249000  0.68577000  0.85230000  1
  O  O45  1  0.83701000  0.35427000  0.04429000  1
  O  O46  1  0.77039000  0.38826000  0.14801000  1
  O  O47  1  0.92994000  0.64828000  0.04547000  1
  O  O48  1  0.99655000  0.61357000  0.14888000  1
  O  O49  1  0.85106000  0.04112000  0.32958000  1
  O  O50  1  0.91284000  0.13597000  0.27280000  1
  O  O51  1  0.91337000  0.04016000  0.67471000  1
  O  O52  1  0.85112000  0.13429000  0.73221000  1
  O  O53  1  0.91329000  0.95944000  0.32909000  1
  O  O54  1  0.85141000  0.86497000  0.27192000  1
  O  O55  1  0.85155000  0.95811000  0.67457000  1
  O  O56  1  0.91389000  0.86359000  0.73098000  1
