# Generated by REPEAT Assigner based on pymatgen
data_DB1-Zn2O8-AZO_A-irmof20_A_No412
_audit_creation_date              2022-05-24
_audit_creation_method            REPEAT_Assigner
_cell_length_a                    12.701400
_cell_length_b                    37.098200
_cell_length_c                    10.000000
_cell_angle_alpha                 90.000000
_cell_angle_beta                  90.000000
_cell_angle_gamma                 109.830000
_cell_volume                      4432.585164
_symmetry_space_group_name_H-M    P1
_symmetry_Int_Tables_number       1
loop_
    _symmetry_equiv_pos_site_id
    _symmetry_equiv_pos_as_xyz
    1  x,y,z
loop_
    _atom_site_type_symbol
    _atom_site_label
    _atom_site_fract_x
    _atom_site_fract_y
    _atom_site_fract_z
    _atom_type_partial_charge
    O   O1   0.348440  0.500350  0.635790  -0.562598
    O   O2   0.348230  0.499980  0.363980  -0.595577
    C   C1   0.294780  0.500110  0.499910  0.398537
    Zn  Zn1  0.500040  0.500110  0.665770  1.201457
    O   O3   0.555080  0.555160  0.363800  -0.623293
    O   O4   0.555290  0.555370  0.635620  -0.553032
    C   C2   0.574550  0.574740  0.499740  0.411254
    O   O5   0.651660  0.499730  0.364210  -0.547821
    O   O6   0.651730  0.499950  0.636020  -0.552085
    C   C3   0.705220  0.499860  0.500090  0.379915
    Zn  Zn2  0.499990  0.499890  0.334230  1.271589
    O   O7   0.444740  0.444840  0.636200  -0.543667
    O   O8   0.444920  0.444640  0.364380  -0.618331
    C   C4   0.425120  0.425260  0.500260  0.396807
    O   O9   0.844860  0.999800  0.266550  -0.558791
    O   O10  0.845390  0.000170  0.538360  -0.593557
    C   C5   0.791720  0.000080  0.402430  0.392630
    Zn  Zn3  0.996810  0.999910  0.236570  1.202716
    O   O11  0.942430  0.944860  0.538530  -0.624406
    O   O12  0.942220  0.944650  0.266720  -0.555253
    C   C6   0.922960  0.925280  0.402590  0.411763
    O   O13  0.149080  0.000170  0.538120  -0.546474
    O   O14  0.148690  0.999940  0.266310  -0.549758
    C   C7   0.202320  0.999990  0.402230  0.378529
    Zn  Zn4  0.997200  0.000130  0.568100  1.271279
    O   O15  0.051370  0.055180  0.266140  -0.551962
    O   O16  0.051970  0.055380  0.537950  -0.620735
    C   C8   0.070690  0.074760  0.402070  0.401302
    C   C9   0.880450  0.882510  0.402520  -0.036973
    C   C10  0.859900  0.861830  0.523640  -0.206138
    C   C11  0.819980  0.821660  0.523250  -0.139232
    C   C12  0.799790  0.801360  0.401930  0.417780
    C   C13  0.820060  0.821750  0.281370  -0.484396
    C   C14  0.859960  0.861900  0.281290  0.531052
    N   N1   0.758900  0.760220  0.398290  -0.210814
    N   N2   0.738610  0.739800  0.504050  -0.207495
    C   C15  0.677450  0.678270  0.620970  -0.509069
    C   C16  0.697720  0.698660  0.500410  0.429242
    C   C17  0.677530  0.678360  0.379080  -0.151994
    C   C18  0.637610  0.638190  0.378700  -0.197526
    C   C19  0.617060  0.617510  0.499810  -0.046305
    C   C20  0.637550  0.638120  0.621040  0.559583
    H   H1   0.874910  0.876930  0.618230  0.189678
    H   H2   0.804710  0.806310  0.617150  0.062092
    H   H3   0.804760  0.806360  0.187430  0.166596
    H   H4   0.692740  0.693660  0.714910  0.172449
    H   H5   0.692800  0.693710  0.285190  0.066022
    H   H6   0.622600  0.623090  0.284110  0.187169
    C   C21  0.113950  0.117520  0.402130  -0.018638
    C   C22  0.134670  0.138180  0.523300  -0.212063
    C   C23  0.175300  0.178340  0.523040  -0.138947
    C   C24  0.196040  0.198670  0.401780  0.417861
    C   C25  0.175620  0.178310  0.281150  -0.478479
    C   C26  0.135010  0.138170  0.280960  0.505587
    N   N3   0.237670  0.239820  0.398260  -0.208029
    N   N4   0.258140  0.260200  0.504080  -0.213101
    C   C27  0.320190  0.321710  0.621180  -0.498276
    C   C28  0.299770  0.301350  0.500560  0.432396
    C   C29  0.320510  0.321680  0.379300  -0.154487
    C   C30  0.361140  0.361840  0.379030  -0.201333
    C   C31  0.381860  0.382500  0.500210  -0.027974
    C   C32  0.360800  0.361850  0.621380  0.534536
    H   H7   0.119230  0.123050  0.617850  0.190501
    H   H8   0.190670  0.193680  0.616980  0.063490
    H   H9   0.191340  0.193720  0.187260  0.163625
    H   H10  0.304470  0.306300  0.715070  0.168754
    H   H11  0.305130  0.306340  0.285350  0.067062
    H   H12  0.376580  0.376970  0.284480  0.187710
    C   C33  0.891150  0.500030  0.606110  0.103261
    S   S1   0.886010  0.499810  0.346960  0.043238
    C   C34  0.108850  0.499940  0.393900  -0.185537
    H   H13  0.130820  0.499880  0.305160  0.186245
    S   S2   0.113990  0.500160  0.653040  0.063404
    C   C35  0.822750  0.499910  0.500060  -0.046042
    C   C36  0.177250  0.500060  0.499950  0.049592
    C   C37  0.999930  0.499930  0.431650  0.055715
    C   C38  0.000070  0.500040  0.568350  -0.104222
    C   C39  0.387760  0.999670  0.296220  0.099903
    S   S3   0.383070  0.999890  0.555360  0.043827
    C   C40  0.605460  0.999570  0.508410  -0.189452
    H   H14  0.627550  0.999620  0.597160  0.186979
    S   S4   0.610150  0.999350  0.249270  0.061610
    C   C41  0.319650  0.999840  0.402270  -0.046151
    C   C42  0.673560  0.999400  0.402370  0.055979
    C   C43  0.496650  0.999680  0.470660  0.056341
    C   C44  0.496560  0.999560  0.333970  -0.103613
    H   H15  0.957770  0.908330  0.135370  0.369202
    H   H16  0.819570  0.873240  0.066770  0.371045
    N   N5   0.880960  0.883020  0.149510  -0.879829
    H   H17  0.643010  0.591650  0.766970  0.373573
    H   H18  0.574670  0.626830  0.835560  0.381949
    N   N6   0.616550  0.617000  0.752830  -0.906577
    H   H19  0.036750  0.091890  0.134780  0.346891
    H   H20  0.175440  0.126760  0.066530  0.365610
    N   N7   0.113860  0.117080  0.149110  -0.844155
    H   H21  0.356040  0.408420  0.767320  0.354918
    H   H22  0.423400  0.372980  0.836050  0.378128
    N   N8   0.381950  0.382940  0.753220  -0.878833
    C   C45  0.854490  0.500140  0.754160  -0.088584
    H   H23  0.835270  0.522630  0.770880  0.043569
    H   H24  0.914880  0.500150  0.811910  0.072255
    H   H25  0.790640  0.477700  0.771240  0.044106
    C   C46  0.350910  0.999590  0.148160  -0.076977
    H   H26  0.287020  0.977140  0.131440  0.034941
    H   H27  0.411220  0.999520  0.090420  0.069066
    H   H28  0.331690  0.022060  0.131090  0.046266
