# Generated by REPEAT Assigner based on pymatgen
data_DB1-Cu2N8-ADC_B-BDC_B_No275
_audit_creation_date              2022-05-24
_audit_creation_method            REPEAT_Assigner
_cell_length_a                    25.944200
_cell_length_b                    13.714100
_cell_length_c                    7.052800
_cell_angle_alpha                 90.000000
_cell_angle_beta                  90.000000
_cell_angle_gamma                 58.089200
_cell_volume                      2130.155979
_symmetry_space_group_name_H-M    P1
_symmetry_Int_Tables_number       1
loop_
    _symmetry_equiv_pos_site_id
    _symmetry_equiv_pos_as_xyz
    1  x,y,z
loop_
    _atom_site_type_symbol
    _atom_site_label
    _atom_site_fract_x
    _atom_site_fract_y
    _atom_site_fract_z
    _atom_type_partial_charge
    Cu  Cu1  0.500000  0.500000  0.000000  0.335263
    Cu  Cu2  0.500000  0.500000  0.500000  0.307175
    N   N1   0.564020  0.370960  0.156200  -0.018548
    N   N2   0.612090  0.276160  0.092900  -0.336972
    N   N3   0.435980  0.499000  0.343800  0.094379
    N   N4   0.387910  0.500330  0.407100  -0.514747
    N   N5   0.435980  0.629040  0.656200  0.115902
    N   N6   0.387910  0.723840  0.592900  -0.507803
    N   N7   0.564020  0.501000  0.843800  0.102347
    N   N8   0.612090  0.499660  0.907100  -0.506893
    N   N9   0.435980  0.629040  0.843800  0.008181
    N   N10  0.387910  0.723840  0.907100  -0.430963
    N   N11  0.564020  0.501000  0.656200  0.005893
    N   N12  0.612090  0.499660  0.592900  -0.410220
    N   N13  0.564020  0.370960  0.343800  0.106016
    N   N14  0.612090  0.276160  0.407100  -0.477964
    N   N15  0.435980  0.499000  0.156200  0.025395
    N   N16  0.387910  0.500330  0.092900  -0.451244
    C   C1   0.640530  0.219210  0.250000  0.712153
    C   C2   0.359480  0.500260  0.250000  0.850760
    C   C3   0.359470  0.780780  0.750000  0.828124
    C   C4   0.640530  0.499730  0.750000  0.802112
    Cu  Cu3  -0.000000  0.500000  0.000000  0.322983
    Cu  Cu4  -0.000000  0.500000  0.500000  0.328877
    N   N17  0.935980  0.629040  0.156200  0.095860
    N   N18  0.887910  0.723840  0.092900  -0.514773
    N   N19  0.064020  0.501000  0.343800  0.083968
    N   N20  0.112090  0.499660  0.407100  -0.511645
    N   N21  0.064020  0.370960  0.656200  0.080143
    N   N22  0.112090  0.276160  0.592900  -0.508296
    N   N23  0.935980  0.499000  0.843800  0.078420
    N   N24  0.887910  0.500330  0.907100  -0.507260
    N   N25  0.064020  0.370960  0.843800  0.098563
    N   N26  0.112090  0.276160  0.907100  -0.519187
    N   N27  0.935980  0.499000  0.656200  0.092677
    N   N28  0.887910  0.500330  0.592900  -0.517930
    N   N29  0.935980  0.629040  0.343800  0.080296
    N   N30  0.887910  0.723840  0.407100  -0.505049
    N   N31  0.064020  0.501000  0.156200  0.091244
    N   N32  0.112090  0.499660  0.092900  -0.519140
    C   C5   0.859480  0.780780  0.250000  0.809864
    C   C6   0.140520  0.499730  0.250000  0.825812
    C   C7   0.140530  0.219210  0.750000  0.820890
    C   C8   0.859480  0.500260  0.750000  0.831760
    C   C9   0.696050  0.499870  0.750000  -0.466509
    C   C10  0.803950  0.500130  0.750000  -0.236392
    C   C11  0.723210  0.499930  0.579940  0.665351
    C   C12  0.776790  0.500060  0.920060  -0.066262
    C   C13  0.776790  0.500060  0.579940  -0.279713
    C   C14  0.723210  0.499930  0.920060  -0.051471
    H   H1   0.795280  0.500110  0.037950  0.085672
    H   H2   0.795280  0.500110  0.462050  0.170849
    H   H3   0.704730  0.499890  0.037950  0.121616
    C   C15  0.303950  0.500130  0.250000  -0.506709
    C   C16  0.196050  0.499870  0.250000  -0.218651
    C   C17  0.276790  0.500060  0.079940  0.665553
    C   C18  0.223210  0.499930  0.420060  -0.083731
    C   C19  0.223210  0.499930  0.079940  -0.285471
    C   C20  0.276790  0.500060  0.420060  -0.027985
    H   H4   0.204730  0.499890  0.537950  0.089364
    H   H5   0.204730  0.499890  0.962050  0.170271
    H   H6   0.295280  0.500110  0.537950  0.118352
    C   C21  0.696050  0.108030  0.250000  -0.367243
    C   C22  0.803950  0.891970  0.250000  -0.218949
    C   C23  0.723210  0.053640  0.079940  0.492883
    C   C24  0.776790  0.946350  0.420060  -0.069573
    C   C25  0.776790  0.946350  0.079940  -0.226653
    C   C26  0.723210  0.053640  0.420060  -0.078251
    H   H7   0.795270  0.909340  0.537950  0.088236
    H   H8   0.795270  0.909340  0.962050  0.150743
    H   H9   0.704730  0.090660  0.537950  0.134674
    C   C27  0.303950  0.891970  0.750000  -0.497764
    C   C28  0.196050  0.108030  0.750000  -0.214530
    C   C29  0.276790  0.946350  0.920060  0.666095
    C   C30  0.223210  0.053640  0.579940  -0.086311
    C   C31  0.223210  0.053640  0.920060  -0.288235
    C   C32  0.276790  0.946350  0.579940  -0.028028
    H   H10  0.204730  0.090660  0.462050  0.089741
    H   H11  0.204730  0.090660  0.037950  0.171722
    H   H12  0.295280  0.909340  0.462050  0.118469
    H   H13  0.675790  0.443420  0.376160  0.418530
    H   H14  0.691110  0.556250  0.276560  0.406225
    N   N33  0.694130  0.499860  0.394510  -1.056446
    H   H15  0.324210  0.556580  0.876160  0.407182
    H   H16  0.308890  0.443740  0.776560  0.391273
    N   N34  0.305870  0.500130  0.894510  -1.029684
    H   H17  0.644240  0.155390  0.876160  0.286769
    H   H18  0.722660  0.111140  0.776560  0.321105
    N   N35  0.694130  0.111870  0.894510  -0.788144
    H   H19  0.324220  0.794990  0.123840  0.406842
    H   H20  0.308890  0.938470  0.223440  0.391928
    N   N36  0.305870  0.888130  0.105490  -1.033163
