# Generated by REPEAT Assigner based on pymatgen
data_DB1-Cu2N8-irmof20_B-irmof7_B_No20
_audit_creation_date              2022-05-24
_audit_creation_method            REPEAT_Assigner
_cell_length_a                    13.291300
_cell_length_b                    15.188000
_cell_length_c                    7.052800
_cell_angle_alpha                 76.574300
_cell_angle_beta                  105.386000
_cell_angle_gamma                 69.388400
_cell_volume                      1198.306704
_symmetry_space_group_name_H-M    P1
_symmetry_Int_Tables_number       1
loop_
    _symmetry_equiv_pos_site_id
    _symmetry_equiv_pos_as_xyz
    1  x,y,z
loop_
    _atom_site_type_symbol
    _atom_site_label
    _atom_site_fract_x
    _atom_site_fract_y
    _atom_site_fract_z
    _atom_type_partial_charge
    Cu  Cu1  0.500000  0.500000  0.000000  0.355404
    Cu  Cu2  0.500000  0.500000  0.500000  0.399044
    N   N1   0.630630  0.499120  0.221950  0.078144
    N   N2   0.726590  0.500290  0.206050  -0.406387
    N   N3   0.501000  0.386690  0.400950  0.011508
    N   N4   0.499630  0.303460  0.505190  -0.493466
    N   N5   0.369380  0.500880  0.590450  0.087922
    N   N6   0.273420  0.499710  0.479750  -0.483421
    N   N7   0.499000  0.613300  0.786650  0.116774
    N   N8   0.500370  0.696540  0.809020  -0.590174
    N   N9   0.369380  0.500880  0.778050  0.095991
    N   N10  0.273410  0.499710  0.793950  -0.436439
    N   N11  0.499000  0.613300  0.599050  -0.001577
    N   N12  0.500370  0.696540  0.494820  -0.512161
    N   N13  0.630630  0.499120  0.409550  0.090971
    N   N14  0.726590  0.500290  0.520250  -0.462593
    N   N15  0.501000  0.386690  0.213350  0.114137
    N   N16  0.499630  0.303460  0.190990  -0.590367
    C   C1   0.784230  0.500230  0.392000  0.646830
    C   C2   0.499690  0.253460  0.373120  0.946176
    C   C3   0.215770  0.499770  0.608000  0.749347
    C   C4   0.500310  0.746540  0.626880  0.960159
    C   C5   0.500120  0.906310  0.697290  -0.208573
    H   H1   0.500140  0.887340  0.832610  0.197827
    S   S1   0.500120  0.902120  0.331950  0.040414
    C   C6   0.499890  0.093680  0.302710  -0.300106
    H   H2   0.499860  0.112660  0.167390  0.218267
    S   S2   0.499880  0.097870  0.668050  0.008944
    C   C7   0.500190  0.847590  0.576300  -0.387472
    C   C8   0.499810  0.152400  0.423710  -0.271910
    C   C9   0.500000  0.000000  0.403090  0.168307
    C   C10  0.500000  0.000000  0.596910  0.121781
    C   C11  0.101840  0.499890  0.550970  -0.259095
    C   C12  0.015270  0.565240  0.597760  0.160548
    C   C13  0.081520  0.434650  0.450690  0.051570
    C   C14  0.039380  0.628960  0.697850  -0.270424
    C   C15  0.955660  0.695060  0.747100  -0.007856
    H   H3   0.112750  0.627160  0.732190  0.115784
    H   H4   0.971880  0.737380  0.813680  0.082752
    C   C16  0.898170  0.500110  0.449030  -0.235811
    C   C17  0.984730  0.434760  0.402240  0.062155
    C   C18  0.918480  0.565340  0.549310  0.325120
    C   C19  0.829660  0.629180  0.592880  -0.478248
    C   C20  0.846370  0.695180  0.692390  -0.052175
    H   H5   0.758040  0.627530  0.554650  0.281846
    H   H6   0.787170  0.737570  0.721220  0.116528
    Br  Br1  0.949990  0.339680  0.253510  -0.096549
    Br  Br2  0.212820  0.339400  0.385070  -0.059442
