# Generated by REPEAT Assigner based on pymatgen
data_DB1-Cu2O8-AZO_A-BDC_A_No291
_audit_creation_date              2022-05-24
_audit_creation_method            REPEAT_Assigner
_cell_length_a                    10.700300
_cell_length_b                    34.497600
_cell_length_c                    10.000000
_cell_angle_alpha                 90.000000
_cell_angle_beta                  90.000000
_cell_angle_gamma                 90.093700
_cell_volume                      3691.341757
_symmetry_space_group_name_H-M    P1
_symmetry_Int_Tables_number       1
loop_
    _symmetry_equiv_pos_site_id
    _symmetry_equiv_pos_as_xyz
    1  x,y,z
loop_
    _atom_site_type_symbol
    _atom_site_label
    _atom_site_fract_x
    _atom_site_fract_y
    _atom_site_fract_z
    _atom_type_partial_charge
    Cu  Cu1   0.500000  0.500000  0.627260  1.114275
    Cu  Cu2   0.500010  0.500000  0.372740  1.100431
    O   O1    0.662500  0.499970  0.618690  -0.600444
    O   O2    0.337180  0.499920  0.618670  -0.628474
    O   O3    0.499650  0.449490  0.618680  -0.406074
    O   O4    0.500020  0.550400  0.618680  -0.396882
    O   O5    0.500320  0.550510  0.381320  -0.365846
    O   O6    0.500040  0.449610  0.381320  -0.439215
    O   O7    0.337380  0.499980  0.381310  -0.629507
    O   O8    0.662840  0.500100  0.381330  -0.383871
    C   C1    0.734390  0.500030  0.500010  0.451052
    C   C2    0.265620  0.499970  0.499990  0.587397
    C   C3    0.499850  0.427300  0.500000  0.307649
    C   C4    0.500180  0.572700  0.500000  0.239013
    Cu  Cu3   0.500500  0.000000  0.275020  1.111645
    Cu  Cu4   0.499870  0.000000  0.529530  1.097098
    O   O9    0.662970  0.000190  0.284050  -0.598621
    O   O10   0.337660  0.999930  0.283140  -0.624408
    O   O11   0.500140  0.050510  0.283590  -0.405842
    O   O12   0.500490  0.949610  0.283590  -0.396920
    O   O13   0.500190  0.949490  0.520950  -0.366393
    O   O14   0.499930  0.050400  0.520960  -0.440447
    O   O15   0.337270  0.999870  0.520490  -0.625173
    O   O16   0.662720  0.000060  0.521410  -0.379274
    C   C5    0.734570  0.000210  0.402940  0.446319
    C   C6    0.265800  0.999800  0.401620  0.575027
    C   C7    0.500040  0.072700  0.402280  0.309392
    C   C8    0.500340  0.927300  0.402280  0.239349
    C   C9    0.500330  0.884040  0.402270  0.225496
    C   C10   0.500180  0.863130  0.523420  -0.128742
    C   C11   0.500180  0.822500  0.523100  -0.037039
    C   C12   0.500330  0.801940  0.401820  0.519381
    C   C13   0.500480  0.822550  0.281220  -0.332333
    C   C14   0.500480  0.863170  0.281080  0.038071
    N   N1    0.500320  0.760320  0.398240  -0.193972
    N   N2    0.500190  0.739680  0.504030  -0.197854
    C   C15   0.500040  0.677450  0.621060  -0.331357
    C   C16   0.500190  0.698060  0.500460  0.519930
    C   C17   0.500340  0.677510  0.379170  -0.035903
    C   C18   0.500330  0.636870  0.378850  -0.130951
    C   C19   0.500180  0.615970  0.500000  0.226125
    C   C20   0.500030  0.636840  0.621200  0.037897
    C   C21   0.500040  0.115970  0.402270  0.185340
    C   C22   0.499840  0.136870  0.523420  -0.091310
    C   C23   0.499840  0.177510  0.523100  -0.055931
    C   C24   0.500030  0.198060  0.401820  0.530495
    C   C25   0.500230  0.177450  0.281220  -0.333194
    C   C26   0.500230  0.136840  0.281080  0.040104
    N   N3    0.500030  0.239680  0.398240  -0.196093
    N   N4    0.499860  0.260320  0.504030  -0.198956
    C   C27   0.499660  0.322550  0.621050  -0.332661
    C   C28   0.499860  0.301940  0.500460  0.532067
    C   C29   0.500050  0.322500  0.379170  -0.057960
    C   C30   0.500050  0.363130  0.378850  -0.090385
    C   C31   0.499850  0.384040  0.500000  0.184951
    C   C32   0.499660  0.363170  0.621200  0.040393
    C   C33   0.869110  0.500020  0.500000  0.000457
    C   C34   0.130910  0.499990  0.499990  0.033298
    C   C35   0.935010  0.500070  0.380060  0.090124
    C   C36   0.065010  0.499930  0.619930  -0.167388
    C   C37   0.065000  0.500060  0.380050  -0.143444
    C   C38   0.935020  0.499940  0.619940  -0.067948
    H   H1    0.109860  0.499880  0.703080  0.173107
    H   H2    0.109850  0.500100  0.296910  0.171080
    H   H3    0.890170  0.499900  0.703080  0.158376
    C   C39   0.869290  0.000360  0.403330  0.003429
    C   C40   0.131080  0.000640  0.404090  0.052830
    C   C41   0.934880  0.000360  0.523460  0.090697
    C   C42   0.065490  0.000640  0.283960  -0.180565
    C   C43   0.064880  0.000500  0.523840  -0.153583
    C   C44   0.935490  0.000490  0.283580  -0.067036
    H   H4    0.110550  0.000730  0.200950  0.176273
    H   H5    0.109520  0.000510  0.607110  0.174103
    H   H6    0.890850  0.000490  0.200310  0.159370
    Cl  Cl1   0.500680  0.888050  0.127430  -0.018828
    Cl  Cl2   0.500670  0.797210  0.128460  0.081709
    Cl  Cl3   0.499990  0.887980  0.677130  0.029947
    Cl  Cl4   0.499980  0.797230  0.676000  -0.085736
    Cl  Cl5   0.499850  0.702790  0.773820  0.082161
    Cl  Cl6   0.499840  0.611950  0.774840  -0.019300
    Cl  Cl7   0.500530  0.702780  0.226280  -0.086292
    Cl  Cl8   0.500520  0.612020  0.225150  0.030770
    Cl  Cl9   0.500480  0.111950  0.127430  -0.010048
    Cl  Cl10  0.500470  0.202790  0.128460  0.081803
    Cl  Cl11  0.499590  0.112020  0.677130  0.022275
    Cl  Cl12  0.499590  0.202780  0.676000  -0.081016
    Cl  Cl13  0.499420  0.297220  0.773820  0.082057
    Cl  Cl14  0.499410  0.388050  0.774840  -0.009768
    Cl  Cl15  0.500300  0.297230  0.226280  -0.080502
    Cl  Cl16  0.500290  0.387980  0.225150  0.022062
    O   O17   0.754230  0.525520  0.232220  -0.281263
    O   O18   0.905550  0.474860  0.138230  -0.348964
    N   N5    0.864370  0.500150  0.249130  0.244317
    O   O19   0.753740  0.974740  0.670780  -0.281214
    O   O20   0.904830  0.025540  0.765210  -0.348941
    N   N6    0.863920  0.000210  0.654190  0.244721
