# Generated by REPEAT Assigner based on pymatgen
data_DB1-Cu2O8-irmof10_A-irmof8_A_No503
_audit_creation_date              2022-05-24
_audit_creation_method            REPEAT_Assigner
_cell_length_a                    29.891500
_cell_length_b                    40.866800
_cell_length_c                    10.000000
_cell_angle_alpha                 90.000000
_cell_angle_beta                  90.000000
_cell_angle_gamma                 43.124400
_cell_volume                      8350.464791
_symmetry_space_group_name_H-M    P1
_symmetry_Int_Tables_number       1
loop_
    _symmetry_equiv_pos_site_id
    _symmetry_equiv_pos_as_xyz
    1  x,y,z
loop_
    _atom_site_type_symbol
    _atom_site_label
    _atom_site_fract_x
    _atom_site_fract_y
    _atom_site_fract_z
    _atom_type_partial_charge
    Cu  Cu1   0.500000  0.500000  0.372740  1.166696
    Cu  Cu2   0.500000  0.500000  0.627260  1.144482
    O   O1    0.437770  0.562240  0.381310  -0.623956
    O   O2    0.562230  0.437630  0.381320  -0.620905
    O   O3    0.441840  0.499870  0.381320  -0.625698
    O   O4    0.558160  0.500010  0.381320  -0.626162
    O   O5    0.558180  0.500120  0.618680  -0.640395
    O   O6    0.441830  0.500010  0.618680  -0.647351
    O   O7    0.562220  0.437710  0.618680  -0.605434
    O   O8    0.437780  0.562370  0.618670  -0.557961
    C   C1    0.410310  0.589780  0.500000  0.594987
    C   C2    0.589690  0.410230  0.500010  0.602123
    C   C3    0.416160  0.499940  0.500000  0.644552
    C   C4    0.583840  0.500070  0.500000  0.631081
    Cu  Cu3   0.999870  0.500130  0.627300  1.165270
    Cu  Cu4   0.000110  0.499900  0.372780  1.143762
    O   O9    0.937890  0.562370  0.618260  -0.622910
    O   O10   0.062120  0.437760  0.619170  -0.620003
    O   O11   0.058300  0.499990  0.618720  -0.623718
    O   O12   0.941710  0.500130  0.618720  -0.627433
    O   O13   0.941690  0.500020  0.381360  -0.645493
    O   O14   0.058250  0.499920  0.381350  -0.641175
    O   O15   0.062200  0.437610  0.381810  -0.605669
    O   O16   0.937840  0.562270  0.380910  -0.557778
    C   C5    0.910500  0.589790  0.499380  0.594969
    C   C6    0.089470  0.410240  0.500690  0.603401
    C   C7    0.083950  0.499960  0.500030  0.630219
    C   C8    0.916030  0.500070  0.500030  0.642376
    Cu  Cu5   0.035300  0.965000  0.627310  1.164797
    Cu  Cu6   0.034990  0.965000  0.372800  1.141969
    O   O17   0.097500  0.902760  0.618740  -0.622718
    O   O18   0.972820  0.027370  0.618730  -0.620243
    O   O19   0.977110  0.964890  0.619380  -0.623473
    O   O20   0.093210  0.965240  0.618090  -0.626506
    O   O21   0.093160  0.965130  0.380730  -0.643482
    O   O22   0.977090  0.964750  0.382020  -0.641355
    O   O23   0.972670  0.027300  0.381380  -0.604712
    O   O24   0.097480  0.902630  0.381380  -0.556716
    C   C9    0.124950  0.875230  0.500050  0.593430
    C   C10   0.945330  0.054780  0.500050  0.602978
    C   C11   0.951530  0.964710  0.500980  0.629957
    C   C12   0.118760  0.965290  0.499120  0.639744
    Cu  Cu7   0.536780  0.964900  0.369320  1.170642
    Cu  Cu8   0.536860  0.965130  0.623840  1.138834
    O   O25   0.598790  0.902660  0.378350  -0.624462
    O   O26   0.474780  0.027270  0.377440  -0.619562
    O   O27   0.595180  0.964790  0.377250  -0.635412
    O   O28   0.478380  0.965140  0.378540  -0.622167
    O   O29   0.478440  0.965250  0.615900  -0.635668
    O   O30   0.595270  0.964870  0.614610  -0.650487
    O   O31   0.474860  0.027420  0.614800  -0.598141
    O   O32   0.598840  0.902760  0.615710  -0.554456
    C   C13   0.626180  0.875240  0.497230  0.591055
    C   C14   0.447450  0.054790  0.495920  0.583029
    C   C15   0.621010  0.964730  0.495650  0.650034
    C   C16   0.452630  0.965300  0.497510  0.629499
    C   C17   0.632060  0.500070  0.500010  -0.019392
    C   C18   0.867800  0.500070  0.500030  -0.031564
    C   C19   0.655710  0.500010  0.380070  -0.232019
    C   C20   0.702630  0.500010  0.378960  0.265871
    C   C21   0.844160  0.500130  0.619970  -0.222264
    C   C22   0.797240  0.500130  0.621080  0.259569
    C   C23   0.844270  0.500020  0.380090  -0.118339
    C   C24   0.797360  0.500010  0.378970  -0.246405
    C   C25   0.655600  0.500120  0.619950  -0.132161
    C   C26   0.702510  0.500120  0.621070  -0.236087
    C   C27   0.726300  0.500070  0.500020  0.071940
    C   C28   0.773570  0.500070  0.500020  0.078285
    H   H1    0.639700  0.499970  0.296920  0.141729
    H   H2    0.860170  0.500170  0.703110  0.137441
    H   H3    0.860370  0.499980  0.296940  0.128799
    H   H4    0.781530  0.499970  0.295480  0.274926
    H   H5    0.639500  0.500160  0.703090  0.132162
    H   H6    0.718330  0.500160  0.704550  0.272713
    C   C29   0.367930  0.499940  0.500010  -0.034064
    C   C30   0.132180  0.499950  0.500030  -0.018510
    C   C31   0.344410  0.499870  0.380070  -0.222164
    C   C32   0.297490  0.499870  0.378960  0.259980
    C   C33   0.155700  0.500030  0.619970  -0.232985
    C   C34   0.202610  0.500030  0.621080  0.267299
    C   C35   0.155840  0.499880  0.380090  -0.132879
    C   C36   0.202760  0.499880  0.378970  -0.235276
    C   C37   0.344270  0.500020  0.619950  -0.116635
    C   C38   0.297350  0.500020  0.621070  -0.248017
    C   C39   0.273690  0.499950  0.500020  0.080121
    C   C40   0.226420  0.499950  0.500020  0.070135
    H   H7    0.360520  0.499820  0.296920  0.137264
    H   H8    0.139590  0.500080  0.703110  0.141881
    H   H9    0.139830  0.499830  0.296940  0.132347
    H   H10   0.218670  0.499830  0.295480  0.272570
    H   H11   0.360270  0.500070  0.703090  0.128375
    H   H12   0.281440  0.500070  0.704550  0.275337
    C   C41   0.210300  0.789910  0.597920  -0.034637
    C   C42   0.192270  0.807800  0.363860  -0.141271
    C   C43   0.240820  0.759220  0.327680  -0.058366
    C   C44   0.275130  0.724960  0.432360  0.146788
    C   C45   0.324960  0.675090  0.402140  -0.028236
    C   C46   0.342990  0.657210  0.636190  -0.140370
    C   C47   0.294450  0.705790  0.672370  -0.059105
    C   C48   0.260140  0.740040  0.567690  0.154258
    C   C49   0.177930  0.822230  0.500040  -0.028447
    C   C50   0.357330  0.642780  0.500010  -0.032806
    H   H13   0.165130  0.834910  0.286720  0.132375
    H   H14   0.370140  0.630090  0.713320  0.132760
    C   C51   0.641320  0.358630  0.500010  0.009066
    C   C52   0.893700  0.106380  0.500040  0.002768
    C   C53   0.666540  0.333380  0.380080  -0.244598
    C   C54   0.716770  0.283180  0.378970  0.241842
    C   C55   0.868480  0.131620  0.619980  -0.238005
    C   C56   0.818250  0.181830  0.621090  0.233355
    C   C57   0.868420  0.131620  0.380100  -0.140631
    C   C58   0.818180  0.181820  0.378980  -0.254277
    C   C59   0.666610  0.333390  0.619960  -0.147093
    C   C60   0.716840  0.283180  0.621080  -0.244486
    C   C61   0.742200  0.257790  0.500020  0.085311
    C   C62   0.792820  0.207210  0.500030  0.098211
    H   H15   0.649330  0.350560  0.296930  0.148360
    H   H16   0.885690  0.114450  0.703130  0.147482
    H   H17   0.885580  0.114440  0.296960  0.129955
    H   H18   0.801180  0.198790  0.295490  0.277012
    H   H19   0.649440  0.350570  0.703100  0.131018
    H   H20   0.733840  0.266210  0.704560  0.274016
    C   C63   0.711190  0.789830  0.400000  -0.030054
    C   C64   0.693300  0.807940  0.633920  -0.139744
    C   C65   0.741670  0.759390  0.670460  -0.059737
    C   C66   0.775830  0.725040  0.566030  0.151703
    C   C67   0.825500  0.675200  0.596620  -0.031061
    C   C68   0.843390  0.657090  0.362690  -0.138564
    C   C69   0.795010  0.705630  0.326160  -0.060305
    C   C70   0.760850  0.739990  0.430590  0.149633
    C   C71   0.678970  0.822240  0.497630  -0.029777
    C   C72   0.857720  0.642790  0.498980  -0.032116
    H   H21   0.666270  0.835120  0.710870  0.131396
    H   H22   0.870420  0.629900  0.285760  0.131963
    C   C73   0.140820  0.358640  0.501060  0.003730
    C   C74   0.391860  0.106390  0.502870  0.035311
    C   C75   0.165870  0.333510  0.621180  -0.239788
    C   C76   0.215830  0.283310  0.622650  0.235402
    C   C77   0.366810  0.131520  0.382750  -0.262926
    C   C78   0.316860  0.181720  0.381270  0.247417
    C   C79   0.366660  0.131750  0.622630  -0.156032
    C   C80   0.316700  0.181950  0.623390  -0.243665
    C   C81   0.166020  0.333290  0.381300  -0.141022
    C   C82   0.215980  0.283080  0.380550  -0.255457
    C   C83   0.241170  0.257810  0.501780  0.099661
    C   C84   0.291510  0.207220  0.502150  0.081817
    H   H23   0.148720  0.350760  0.704200  0.147281
    H   H24   0.383960  0.114270  0.299730  0.152860
    H   H25   0.383710  0.114640  0.705900  0.133314
    H   H26   0.299760  0.199000  0.706750  0.275507
    H   H27   0.148980  0.350390  0.298030  0.130348
    H   H28   0.232920  0.266040  0.297180  0.277150
    C   C85   0.166780  0.965490  0.498580  -0.027745
    C   C86   0.401540  0.966480  0.495940  -0.022848
    C   C87   0.190360  0.965650  0.618260  -0.227986
    C   C88   0.237090  0.965840  0.618840  0.263739
    C   C89   0.377950  0.966320  0.376270  -0.228823
    C   C90   0.331230  0.966130  0.375680  0.265736
    C   C91   0.378140  0.966440  0.616140  -0.135723
    C   C92   0.331420  0.966240  0.617780  -0.235659
    C   C93   0.190180  0.965540  0.378380  -0.118483
    C   C94   0.236900  0.965730  0.376740  -0.248193
    C   C95   0.260620  0.965890  0.497530  0.077955
    C   C96   0.307700  0.966080  0.497000  0.071929
    H   H29   0.174440  0.965620  0.701580  0.139563
    H   H30   0.393880  0.966350  0.292940  0.140683
    H   H31   0.394190  0.966540  0.699110  0.133084
    H   H32   0.315690  0.966210  0.701440  0.273719
    H   H33   0.174120  0.965430  0.295420  0.128550
    H   H34   0.252630  0.965760  0.293080  0.276008
    C   C97   0.903510  0.964510  0.501520  -0.021078
    C   C98   0.668770  0.963510  0.504110  -0.017711
    C   C99   0.880100  0.964480  0.621720  -0.232576
    C   C100  0.833380  0.964280  0.623350  0.265191
    C   C101  0.692190  0.963530  0.383910  -0.242478
    C   C102  0.738900  0.963730  0.382280  0.267232
    C   C103  0.692330  0.963680  0.623790  -0.121418
    C   C104  0.739050  0.963880  0.624390  -0.247884
    C   C105  0.879950  0.964330  0.381840  -0.128603
    C   C106  0.833230  0.964130  0.381240  -0.241710
    C   C107  0.809680  0.964110  0.502550  0.076603
    C   C108  0.762600  0.963910  0.503080  0.076255
    H   H35   0.896130  0.964600  0.704680  0.141894
    H   H36   0.676150  0.963410  0.300950  0.142398
    H   H37   0.676400  0.963660  0.707110  0.130761
    H   H38   0.754900  0.964000  0.707700  0.275613
    H   H39   0.895880  0.964350  0.298520  0.131184
    H   H40   0.817380  0.964020  0.297930  0.274323
    O   O33   0.727640  0.499950  0.247660  -0.615686
    H   H41   0.703350  0.499910  0.163820  0.409348
    O   O34   0.772230  0.500190  0.752380  -0.613327
    H   H42   0.796520  0.500230  0.836220  0.409016
    O   O35   0.272620  0.499790  0.247660  -0.613392
    H   H43   0.297010  0.499740  0.163820  0.409034
    O   O36   0.227480  0.500100  0.752380  -0.615910
    H   H44   0.203100  0.500160  0.836220  0.409434
    O   O37   0.743440  0.256490  0.247670  -0.600577
    H   H45   0.717370  0.282520  0.163820  0.402820
    O   O38   0.791580  0.208520  0.752390  -0.598593
    H   H46   0.817650  0.182480  0.836230  0.402583
    O   O39   0.242310  0.256740  0.754150  -0.599544
    H   H47   0.216350  0.282850  0.837800  0.402973
    O   O40   0.290370  0.208300  0.249780  -0.601040
    H   H48   0.316340  0.182180  0.166130  0.402538
    O   O41   0.262030  0.966010  0.749870  -0.614334
    H   H49   0.237870  0.965950  0.833980  0.408646
    O   O42   0.306290  0.965960  0.244650  -0.614781
    H   H50   0.330450  0.966020  0.160540  0.409164
    O   O43   0.808620  0.964260  0.754920  -0.615655
    H   H51   0.832900  0.964410  0.838500  0.409591
    O   O44   0.763660  0.963760  0.250710  -0.615964
    H   H52   0.739380  0.963600  0.167130  0.409192
    Cl  Cl1   0.276020  0.724320  0.840580  -0.020056
    Cl  Cl2   0.192390  0.807950  0.766550  -0.008340
    Cl  Cl3   0.259240  0.740690  0.159470  -0.019117
    Cl  Cl4   0.342880  0.657050  0.233510  -0.009445
    Cl  Cl5   0.776590  0.724010  0.157810  -0.019195
    Cl  Cl6   0.693260  0.807710  0.231230  -0.009231
    Cl  Cl7   0.760080  0.741020  0.838800  -0.018890
    Cl  Cl8   0.843430  0.657310  0.765380  -0.009524
