# Generated by REPEAT Assigner based on pymatgen
data_DB1-Cu2O8N2-irmof20_A-irmof6_A_No282
_audit_creation_date              2022-05-24
_audit_creation_method            REPEAT_Assigner
_cell_length_a                    12.501100
_cell_length_b                    23.305700
_cell_length_c                    10.828700
_cell_angle_alpha                 89.999300
_cell_angle_beta                  89.999100
_cell_angle_gamma                 89.884900
_cell_volume                      3154.901661
_symmetry_space_group_name_H-M    P1
_symmetry_Int_Tables_number       1
loop_
    _symmetry_equiv_pos_site_id
    _symmetry_equiv_pos_as_xyz
    1  x,y,z
loop_
    _atom_site_type_symbol
    _atom_site_label
    _atom_site_fract_x
    _atom_site_fract_y
    _atom_site_fract_z
    _atom_type_partial_charge
    Cu  Cu1  0.499990  0.500000  0.382480  0.638744
    Cu  Cu2  0.499990  0.500010  0.617520  0.878083
    O   O1   0.499980  0.574610  0.390400  -0.364381
    O   O2   0.500320  0.425250  0.390410  -0.501907
    O   O3   0.639380  0.499860  0.390400  -0.404350
    O   O4   0.360920  0.499990  0.390410  -0.403419
    O   O5   0.360610  0.500130  0.609600  -0.568783
    O   O6   0.639070  0.500030  0.609590  -0.493952
    O   O7   0.500150  0.425330  0.609600  -0.405151
    O   O8   0.499630  0.574760  0.609590  -0.067444
    C   C1   0.499790  0.607620  0.500000  0.148280
    C   C2   0.500200  0.392390  0.500010  0.590737
    C   C3   0.700620  0.499960  0.500000  0.537186
    C   C4   0.299370  0.500050  0.500010  0.505390
    Cu  Cu3  0.499360  0.963610  0.617560  0.436408
    Cu  Cu4  0.500110  0.963610  0.382520  1.377573
    O   O9   0.499460  0.889000  0.609640  -0.206216
    O   O10  0.499630  0.038370  0.609630  -0.465745
    O   O11  0.638770  0.963500  0.610230  -0.386342
    O   O12  0.360310  0.963880  0.609040  -0.408985
    O   O13  0.360700  0.963740  0.389850  -0.575408
    O   O14  0.639160  0.963320  0.391040  -0.532288
    O   O15  0.500170  0.038280  0.390440  -0.627605
    O   O16  0.499810  0.888850  0.390440  -0.511269
    C   C5   0.499650  0.856000  0.500040  0.241392
    C   C6   0.499820  0.071220  0.500030  0.543098
    C   C7   0.700360  0.963290  0.500890  0.549108
    C   C8   0.299120  0.963930  0.499180  0.534333
    C   C9   0.439920  0.532210  0.872250  0.375226
    S   S1   0.586690  0.453530  0.866540  0.189662
    C   C10  0.560070  0.467800  0.127750  0.080442
    H   H1   0.610320  0.440860  0.153620  0.145523
    S   S2   0.413300  0.546480  0.133460  0.139062
    N   N1   0.499990  0.500000  0.792180  -0.229083
    N   N2   0.499990  0.500000  0.207820  -0.138396
    C   C11  0.538700  0.479250  0.000000  -0.055907
    C   C12  0.461290  0.520760  0.000000  -0.157403
    C   C13  0.889340  0.499910  0.402050  0.303672
    S   S3   0.884380  0.500100  0.641360  0.047870
    C   C14  0.110650  0.500100  0.597960  -0.153242
    H   H2   0.133060  0.500170  0.679900  0.172811
    S   S4   0.115600  0.499910  0.358640  -0.008410
    C   C15  0.819980  0.499980  0.500000  -0.246039
    C   C16  0.180010  0.500030  0.500000  -0.061336
    C   C17  0.999990  0.500060  0.563120  0.083645
    C   C18  -0.000000  0.499960  0.436880  -0.083814
    C   C19  0.499690  0.794460  0.500030  0.139618
    C   C20  0.499750  0.669160  0.500010  0.154653
    C   C21  0.499860  0.763080  0.402490  0.004570
    C   C22  0.499580  0.700530  0.597550  -0.237496
    C   C23  0.499890  0.700540  0.402480  0.050611
    C   C24  0.499550  0.763070  0.597560  -0.224762
    C   C25  0.500080  0.761750  0.263780  0.065167
    C   C26  0.500120  0.701880  0.263770  -0.174235
    H   H3   0.429950  0.782970  0.222840  0.040644
    H   H4   0.570270  0.783130  0.223880  0.019224
    H   H5   0.570380  0.680660  0.223120  0.076396
    H   H6   0.430060  0.680500  0.223570  0.056537
    C   C27  0.500010  0.291160  0.597970  0.362024
    S   S5   0.500190  0.293810  0.358650  0.057157
    C   C28  0.500020  0.172450  0.402070  -0.161409
    H   H7   0.500060  0.160430  0.320130  0.159430
    S   S6   0.499830  0.169800  0.641390  0.021822
    C   C29  0.500120  0.328370  0.500010  -0.308475
    C   C30  0.499900  0.135250  0.500030  -0.075562
    C   C31  0.500060  0.231810  0.436900  0.102677
    C   C32  0.499960  0.231810  0.563140  -0.127650
    C   C33  0.440900  0.931510  0.127530  0.348707
    S   S7   0.587560  0.009930  0.133870  0.140685
    C   C34  0.561790  0.995700  0.872550  -0.095515
    H   H8   0.612100  0.022550  0.846890  0.191187
    S   S8   0.415130  0.917290  0.866210  0.122504
    N   N3   0.500680  0.963610  0.207860  -0.369596
    N   N4   0.502010  0.963610  0.792230  0.007390
    C   C35  0.540030  0.984290  0.000210  0.030572
    C   C36  0.462660  0.942930  0.999880  -0.170944
    C   C37  0.888770  0.962990  0.599640  0.284749
    S   S9   0.884580  0.962810  0.360310  0.050852
    C   C38  0.110700  0.962390  0.404680  -0.155503
    H   H9   0.133370  0.962280  0.322830  0.162270
    S   S10  0.114890  0.962570  0.644010  -0.001247
    C   C39  0.819720  0.963050  0.501400  -0.253587
    C   C40  0.179750  0.962330  0.502920  -0.085439
    C   C41  0.999940  0.962640  0.439040  0.093876
    C   C42  0.999530  0.962740  0.565280  -0.077240
    O   O17  0.358370  0.575930  0.830270  -0.478294
    H   H10  0.320550  0.596210  0.912140  0.350302
    O   O18  0.852980  0.499800  0.269080  -0.526521
    H   H11  0.923900  0.499760  0.207410  0.383679
    O   O19  0.499930  0.310670  0.730940  -0.561574
    H   H12  0.499840  0.272630  0.792610  0.390225
    O   O20  0.359260  0.887940  0.169170  -0.450394
    H   H13  0.321720  0.867740  0.087140  0.357645
    O   O21  0.851980  0.963170  0.732460  -0.517845
    H   H14  0.922700  0.963070  0.794430  0.383114
    C   C43  0.499410  0.673150  0.724760  0.600388
    O   O22  0.452520  0.700070  0.818300  -0.395701
    O   O23  0.540230  0.625530  0.739950  -0.500806
    H   H15  0.435600  0.740740  0.791110  0.241364
    C   C44  0.499260  0.790450  0.724780  0.432874
    O   O24  0.545860  0.763520  0.818520  -0.419015
    O   O25  0.458360  0.838050  0.739810  -0.279901
    H   H16  0.562890  0.722860  0.791390  0.304432
