# Generated by REPEAT Assigner based on pymatgen
data_DB1-Cu2O8N2-ADC_A-BDC_A_No856
_audit_creation_date              2022-05-24
_audit_creation_method            REPEAT_Assigner
_cell_length_a                    15.849400
_cell_length_b                    17.521800
_cell_length_c                    10.700300
_cell_angle_alpha                 89.921800
_cell_angle_beta                  87.674800
_cell_angle_gamma                 95.290000
_cell_volume                      2956.448790
_symmetry_space_group_name_H-M    P1
_symmetry_Int_Tables_number       1
loop_
    _symmetry_equiv_pos_site_id
    _symmetry_equiv_pos_as_xyz
    1  x,y,z
loop_
    _atom_site_type_symbol
    _atom_site_label
    _atom_site_fract_x
    _atom_site_fract_y
    _atom_site_fract_z
    _atom_type_partial_charge
    Cu  Cu1  0.419400  0.497030  0.504850  1.065089
    Cu  Cu2  0.580600  0.502960  0.495160  0.648046
    O   O1   0.424830  0.497290  0.667020  -0.635586
    O   O2   0.424850  0.497400  0.341700  -0.632692
    O   O3   0.430560  0.597020  0.503870  -0.427209
    O   O4   0.419120  0.397670  0.504850  -0.428179
    O   O5   0.569430  0.402970  0.496100  -0.268369
    O   O6   0.580870  0.602320  0.495210  -0.269027
    O   O7   0.575170  0.502810  0.332860  -0.591422
    O   O8   0.575140  0.502560  0.658320  -0.586594
    C   C1   0.499990  0.499940  0.734390  0.693801
    C   C2   0.500010  0.500050  0.265620  0.694072
    C   C3   0.508240  0.643630  0.499410  0.457943
    C   C4   0.491760  0.356360  0.500610  0.457310
    N   N1   0.299620  0.492630  0.512050  -0.499656
    C   C5   0.256760  0.539950  0.434660  0.375158
    C   C6   0.168050  0.536760  0.439880  0.185541
    C   C7   0.119570  0.485930  0.523020  -0.252325
    C   C8   0.162570  0.438730  0.600200  0.220145
    C   C9   0.251200  0.441960  0.594930  0.366936
    C   C10  0.024950  0.479420  0.533660  -0.030543
    C   C11  0.975050  0.520580  0.466340  0.028888
    C   C12  0.837420  0.561260  0.399810  0.277525
    C   C13  0.880430  0.514070  0.476980  -0.321567
    C   C14  0.831960  0.463240  0.560130  0.252748
    C   C15  0.743240  0.460040  0.565350  0.226988
    N   N2   0.700380  0.507360  0.487960  -0.256359
    C   C16  0.748790  0.558040  0.405080  0.232046
    H   H1   0.996220  0.438180  0.601110  0.131964
    H   H2   0.003780  0.561830  0.398880  0.107084
    C   C17  0.486850  0.270840  0.500860  -0.286926
    C   C18  0.561060  0.232340  0.496570  0.180185
    C   C19  0.556560  0.152120  0.496800  0.225851
    C   C20  0.477360  0.108020  0.501350  -0.245880
    C   C21  0.403350  0.146640  0.505630  0.251292
    C   C22  0.407900  0.226790  0.505400  0.208840
    C   C23  0.467710  0.022450  0.501880  -0.000059
    C   C24  0.532320  0.977550  0.498140  -0.053474
    C   C25  0.596670  0.853340  0.494390  0.228163
    C   C26  0.522670  0.891970  0.498670  -0.214407
    C   C27  0.443460  0.847870  0.503220  0.216692
    C   C28  0.438950  0.767650  0.503450  0.203054
    C   C29  0.513160  0.729150  0.499160  -0.290070
    C   C30  0.592110  0.773200  0.494620  0.193859
    H   H3   0.403390  0.996250  0.505580  0.104184
    H   H4   0.596650  0.003740  0.494440  0.133904
    C   C31  0.500000  0.499970  0.869110  -0.421346
    C   C32  0.500010  0.500020  0.130910  -0.418796
    C   C33  0.575950  0.502650  0.930440  0.269372
    C   C34  0.424050  0.497340  0.069580  0.272403
    C   C35  0.575960  0.502670  0.060430  0.261868
    C   C36  0.424050  0.497320  0.939580  0.272679
    H   H5   0.348810  0.359940  0.642410  0.322070
    H   H6   0.272520  0.382470  0.778880  0.276703
    N   N3   0.294680  0.390220  0.679540  -0.600964
    H   H7   0.058810  0.401830  0.747210  0.324559
    H   H8   0.132240  0.324240  0.700790  0.285928
    N   N4   0.113540  0.383380  0.690730  -0.746496
    H   H9   0.364320  0.629430  0.374980  0.323730
    H   H10  0.285180  0.601250  0.247750  0.268647
    N   N5   0.306480  0.595080  0.344500  -0.589047
    H   H11  0.070340  0.567720  0.302580  0.287589
    H   H12  0.153890  0.649940  0.341430  0.271538
    N   N6   0.127150  0.589460  0.353690  -0.674815
    H   H13  0.926610  0.379170  0.610960  0.252876
    H   H14  0.849150  0.403160  0.745040  0.283787
    N   N7   0.872850  0.410530  0.646320  -0.680827
    H   H15  0.638740  0.423660  0.711510  0.261493
    H   H16  0.711790  0.345640  0.665790  0.269601
    N   N8   0.693530  0.404910  0.655510  -0.589648
    H   H17  0.944220  0.651270  0.339260  0.303041
    H   H18  0.864690  0.622650  0.212750  0.302716
    N   N9   0.886440  0.616620  0.309270  -0.759672
    H   H19  0.648140  0.586950  0.271140  0.264577
    H   H20  0.730500  0.670630  0.307600  0.272836
    N   N10  0.705300  0.609770  0.320470  -0.598202
    H   H21  0.320580  0.316040  0.571780  0.211430
    H   H22  0.273370  0.244290  0.451840  0.285113
    N   N11  0.326790  0.265820  0.510090  -0.656061
    H   H23  0.304810  0.051180  0.449960  0.323961
    H   H24  0.265960  0.120060  0.574860  0.293340
    N   N12  0.317090  0.102020  0.510590  -0.768332
    H   H25  0.658920  0.328610  0.429650  0.253715
    H   H26  0.698150  0.259830  0.550000  0.243656
    N   N13  0.646960  0.277590  0.491630  -0.587514
    H   H27  0.646920  0.065410  0.552880  0.267052
    H   H28  0.692140  0.138480  0.427670  0.265985
    N   N14  0.639160  0.115430  0.492030  -0.671284
    H   H29  0.352940  0.934450  0.569780  0.278686
    H   H30  0.308030  0.861640  0.449710  0.270976
    N   N15  0.360850  0.884560  0.507990  -0.679943
    H   H31  0.341230  0.671520  0.447730  0.195483
    H   H32  0.301710  0.740050  0.572670  0.276803
    N   N16  0.353050  0.722410  0.508380  -0.635093
    H   H33  0.695370  0.948930  0.427420  0.310566
    H   H34  0.733910  0.879780  0.547800  0.283645
    N   N17  0.682930  0.897960  0.489430  -0.740627
    H   H35  0.679280  0.683800  0.550880  0.252299
    H   H36  0.726790  0.755820  0.425540  0.246535
    N   N18  0.673220  0.734160  0.489930  -0.592092
    O   O9   0.658760  0.505540  0.854900  -0.536115
    H   H37  0.645910  0.505070  0.753690  0.391848
    O   O10  0.341240  0.494450  0.145110  -0.538536
    H   H38  0.354090  0.494930  0.246320  0.392983
    O   O11  0.658770  0.505590  0.125990  -0.530898
    H   H39  0.645930  0.505160  0.228740  0.390954
    O   O12  0.341230  0.494400  0.874030  -0.539849
    H   H40  0.354070  0.494830  0.771270  0.396149
