data_DB1-Cu2O8-ADC_A-irmof8_A_No806_repeat
_audit_creation_date              2024-02-24
_audit_creation_method            'Materials Studio'
_symmetry_space_group_name_H-M    'P1'
_symmetry_Int_Tables_number       1
_symmetry_cell_setting            triclinic
loop_
_symmetry_equiv_pos_as_xyz
  x,y,z
_cell_length_a                    12.9902
_cell_length_b                    34.9964
_cell_length_c                    10.0000
_cell_angle_alpha                 90.0000
_cell_angle_beta                  90.0000
_cell_angle_gamma                 90.0971
loop_
_atom_site_label
_atom_site_type_symbol
_atom_site_fract_x
_atom_site_fract_y
_atom_site_fract_z
_atom_site_U_iso_or_equiv
_atom_site_adp_type
_atom_site_occupancy
Cu1    Cu    0.50000   0.50000   0.62726   0.00000  Uiso   1.00
Cu2    Cu    0.50001   0.50000   0.37274   0.00000  Uiso   1.00
O1     O     0.63385   0.49998   0.61869   0.00000  Uiso   1.00
O2     O     0.36588   0.49991   0.61867   0.00000  Uiso   1.00
O3     O     0.49971   0.45021   0.61868   0.00000  Uiso   1.00
O4     O     0.50002   0.54968   0.61868   0.00000  Uiso   1.00
O5     O     0.50027   0.54979   0.38132   0.00000  Uiso   1.00
O6     O     0.50003   0.45033   0.38132   0.00000  Uiso   1.00
O7     O     0.36605   0.49997   0.38131   0.00000  Uiso   1.00
O8     O     0.63414   0.50010   0.38133   0.00000  Uiso   1.00
C1     C     0.69308   0.50003   0.50001   0.00000  Uiso   1.00
C2     C     0.30694   0.49997   0.49999   0.00000  Uiso   1.00
C3     C     0.49988   0.42834   0.49999   0.00000  Uiso   1.00
C4     C     0.50015   0.57167   0.50000   0.00000  Uiso   1.00
Cu3    Cu    0.50041   0.00000   0.28188   0.00000  Uiso   1.00
Cu4    Cu    0.49989   0.00001   0.53639   0.00000  Uiso   1.00
O9     O     0.63424   0.00019   0.29091   0.00000  Uiso   1.00
O10    O     0.36627   0.99992   0.29000   0.00000  Uiso   1.00
O11    O     0.50011   0.04979   0.29044   0.00000  Uiso   1.00
O12    O     0.50040   0.95032   0.29047   0.00000  Uiso   1.00
O13    O     0.50015   0.95021   0.52783   0.00000  Uiso   1.00
O14    O     0.49993   0.04968   0.52780   0.00000  Uiso   1.00
O15    O     0.36595   0.99987   0.52735   0.00000  Uiso   1.00
O16    O     0.63403   0.00007   0.52827   0.00000  Uiso   1.00
C5     C     0.69322   0.00021   0.40980   0.00000  Uiso   1.00
C6     C     0.30708   0.99980   0.40847   0.00000  Uiso   1.00
C7     C     0.50003   0.07167   0.40912   0.00000  Uiso   1.00
C8     C     0.50027   0.92834   0.40915   0.00000  Uiso   1.00
C9     C     0.50027   0.88566   0.40916   0.00000  Uiso   1.00
C10    C     0.50014   0.86506   0.53008   0.00000  Uiso   1.00
C11    C     0.50014   0.82503   0.53024   0.00000  Uiso   1.00
C12    C     0.50026   0.80443   0.40893   0.00000  Uiso   1.00
C13    C     0.50039   0.82510   0.28832   0.00000  Uiso   1.00
C14    C     0.50039   0.86509   0.28824   0.00000  Uiso   1.00
C15    C     0.50027   0.76182   0.40144   0.00000  Uiso   1.00
C16    C     0.50015   0.73818   0.50777   0.00000  Uiso   1.00
C17    C     0.50003   0.67490   0.62087   0.00000  Uiso   1.00
C18    C     0.50016   0.69557   0.50026   0.00000  Uiso   1.00
C19    C     0.50028   0.67498   0.37894   0.00000  Uiso   1.00
C20    C     0.50028   0.63495   0.37910   0.00000  Uiso   1.00
C21    C     0.50015   0.61434   0.50001   0.00000  Uiso   1.00
C22    C     0.50003   0.63491   0.62094   0.00000  Uiso   1.00
H1     H     0.50005   0.88015   0.62461   0.00000  Uiso   1.00
H2     H     0.50004   0.81085   0.62594   0.00000  Uiso   1.00
H3     H     0.50049   0.81023   0.19334   0.00000  Uiso   1.00
H4     H     0.50049   0.88015   0.19366   0.00000  Uiso   1.00
H5     H     0.49993   0.68976   0.71585   0.00000  Uiso   1.00
H6     H     0.50038   0.68916   0.28324   0.00000  Uiso   1.00
H7     H     0.50037   0.61986   0.28456   0.00000  Uiso   1.00
H8     H     0.49993   0.61985   0.71551   0.00000  Uiso   1.00
C23    C     0.50002   0.11434   0.40913   0.00000  Uiso   1.00
C24    C     0.49986   0.13495   0.53004   0.00000  Uiso   1.00
C25    C     0.49986   0.17498   0.53022   0.00000  Uiso   1.00
C26    C     0.50002   0.19557   0.40890   0.00000  Uiso   1.00
C27    C     0.50018   0.17491   0.28829   0.00000  Uiso   1.00
C28    C     0.50018   0.13492   0.28821   0.00000  Uiso   1.00
C29    C     0.50002   0.23819   0.40142   0.00000  Uiso   1.00
C30    C     0.49988   0.26182   0.50774   0.00000  Uiso   1.00
C31    C     0.49972   0.32510   0.62085   0.00000  Uiso   1.00
C32    C     0.49988   0.30443   0.50024   0.00000  Uiso   1.00
C33    C     0.50005   0.32503   0.37892   0.00000  Uiso   1.00
C34    C     0.50004   0.36505   0.37909   0.00000  Uiso   1.00
C35    C     0.49988   0.38566   0.50000   0.00000  Uiso   1.00
C36    C     0.49972   0.36509   0.62092   0.00000  Uiso   1.00
H9     H     0.49974   0.11986   0.62458   0.00000  Uiso   1.00
H10    H     0.49973   0.18916   0.62591   0.00000  Uiso   1.00
H11    H     0.50031   0.18977   0.19331   0.00000  Uiso   1.00
H12    H     0.50031   0.11986   0.19362   0.00000  Uiso   1.00
H13    H     0.49960   0.31024   0.71584   0.00000  Uiso   1.00
H14    H     0.50017   0.31085   0.28322   0.00000  Uiso   1.00
H15    H     0.50017   0.38014   0.28455   0.00000  Uiso   1.00
H16    H     0.49959   0.38015   0.71550   0.00000  Uiso   1.00
C37    C     0.12348   0.49994   0.59787   0.00000  Uiso   1.00
C38    C     0.16193   0.50006   0.36381   0.00000  Uiso   1.00
C39    C     0.05745   0.50009   0.32764   0.00000  Uiso   1.00
C40    C     0.98379   0.50004   0.43233   0.00000  Uiso   1.00
C41    C     0.87654   0.50007   0.40212   0.00000  Uiso   1.00
C42    C     0.83809   0.49995   0.63618   0.00000  Uiso   1.00
C43    C     0.94257   0.49992   0.67235   0.00000  Uiso   1.00
C44    C     0.01622   0.49996   0.56766   0.00000  Uiso   1.00
C45    C     0.19297   0.49998   0.49999   0.00000  Uiso   1.00
C46    C     0.80705   0.50002   0.50001   0.00000  Uiso   1.00
H17    H     0.14756   0.49987   0.70252   0.00000  Uiso   1.00
H18    H     0.22022   0.50009   0.28666   0.00000  Uiso   1.00
H19    H     0.85246   0.50013   0.29748   0.00000  Uiso   1.00
H20    H     0.77979   0.49991   0.71332   0.00000  Uiso   1.00
C47    C     0.12382   0.00083   0.31345   0.00000  Uiso   1.00
C48    C     0.16178   0.00076   0.54764   0.00000  Uiso   1.00
C49    C     0.05723   0.00061   0.58344   0.00000  Uiso   1.00
C50    C     0.98379   0.00056   0.47849   0.00000  Uiso   1.00
C51    C     0.87648   0.00040   0.50833   0.00000  Uiso   1.00
C52    C     0.83851   0.00047   0.27414   0.00000  Uiso   1.00
C53    C     0.94306   0.00063   0.23833   0.00000  Uiso   1.00
C54    C     0.01650   0.00067   0.34328   0.00000  Uiso   1.00
C55    C     0.19311   0.00088   0.41157   0.00000  Uiso   1.00
C56    C     0.80719   0.00036   0.41020   0.00000  Uiso   1.00
H21    H     0.14812   0.00093   0.20888   0.00000  Uiso   1.00
H22    H     0.21991   0.00081   0.62500   0.00000  Uiso   1.00
H23    H     0.85217   0.00031   0.61289   0.00000  Uiso   1.00
H24    H     0.78037   0.00043   0.19679   0.00000  Uiso   1.00
O17    O     0.56783   0.76167   0.15786   0.00000  Uiso   1.00
O18    O     0.43313   0.71222   0.23013   0.00000  Uiso   1.00
N1     N     0.50041   0.74510   0.26204   0.00000  Uiso   1.00
O19    O     0.56721   0.73841   0.75158   0.00000  Uiso   1.00
O20    O     0.43268   0.78770   0.67885   0.00000  Uiso   1.00
N2     N     0.50001   0.75490   0.64717   0.00000  Uiso   1.00
O21    O     0.43304   0.23834   0.15757   0.00000  Uiso   1.00
O22    O     0.56755   0.28779   0.23038   0.00000  Uiso   1.00
N3     N     0.50021   0.25490   0.26202   0.00000  Uiso   1.00
O23    O     0.43225   0.26159   0.75129   0.00000  Uiso   1.00
O24    O     0.56696   0.21231   0.67910   0.00000  Uiso   1.00
N4     N     0.49969   0.24511   0.64714   0.00000  Uiso   1.00
O25    O     0.97198   0.49985   0.79640   0.00000  Uiso   1.00
Li1    Li    0.90635   0.49977   0.94475   0.00000  Uiso   1.00
O26    O     0.02805   0.50015   0.20359   0.00000  Uiso   1.00
Li2    Li    0.09368   0.50022   0.05525   0.00000  Uiso   1.00
O27    O     0.97273   0.00073   0.11439   0.00000  Uiso   1.00
Li3    Li    0.90741   0.00072   0.96581   0.00000  Uiso   1.00
O28    O     0.02757   0.00051   0.70739   0.00000  Uiso   1.00
Li4    Li    0.09289   0.00052   0.85597   0.00000  Uiso   1.00
