# Generated by REPEAT Assigner based on pymatgen
data_DB1-Cu2N8-ADC_B-irmof20_B_No768
_audit_creation_date              2022-05-24
_audit_creation_method            REPEAT_Assigner
_cell_length_a                    29.545800
_cell_length_b                    15.621200
_cell_length_c                    7.052800
_cell_angle_alpha                 90.000000
_cell_angle_beta                  90.000000
_cell_angle_gamma                 58.081600
_cell_volume                      2762.982148
_symmetry_space_group_name_H-M    P1
_symmetry_Int_Tables_number       1
loop_
    _symmetry_equiv_pos_site_id
    _symmetry_equiv_pos_as_xyz
    1  x,y,z
loop_
    _atom_site_type_symbol
    _atom_site_label
    _atom_site_fract_x
    _atom_site_fract_y
    _atom_site_fract_z
    _atom_type_partial_charge
    Cu  Cu1  0.500000  0.500000  0.000000  0.440116
    Cu  Cu2  0.500000  0.500000  0.500000  0.395799
    N   N1   0.556220  0.386700  0.156200  -0.034184
    N   N2   0.598430  0.303460  0.092900  -0.381518
    N   N3   0.443780  0.499130  0.343800  0.056709
    N   N4   0.401570  0.500320  0.407100  -0.440575
    N   N5   0.443780  0.613300  0.656200  0.083292
    N   N6   0.401570  0.696540  0.592900  -0.448400
    N   N7   0.556220  0.500860  0.843800  0.069086
    N   N8   0.598430  0.499680  0.907100  -0.446857
    N   N9   0.443780  0.613300  0.843800  -0.038579
    N   N10  0.401570  0.696540  0.907100  -0.382356
    N   N11  0.556220  0.500860  0.656200  -0.019735
    N   N12  0.598430  0.499680  0.592900  -0.382250
    N   N13  0.556220  0.386700  0.343800  0.079078
    N   N14  0.598430  0.303460  0.407100  -0.449034
    N   N15  0.443780  0.499130  0.156200  -0.007791
    N   N16  0.401570  0.500320  0.092900  -0.388332
    C   C1   0.623410  0.253460  0.250000  0.830309
    C   C2   0.376590  0.500270  0.250000  0.832137
    C   C3   0.376590  0.746540  0.750000  0.830670
    C   C4   0.623410  0.499730  0.750000  0.831789
    Cu  Cu3  0.000000  0.500000  0.000000  0.318108
    Cu  Cu4  0.000000  0.500000  0.500000  0.372918
    N   N17  0.943780  0.613300  0.156200  0.142563
    N   N18  0.901570  0.696540  0.092900  -0.546662
    N   N19  0.056220  0.500860  0.343800  0.021343
    N   N20  0.098430  0.499680  0.407100  -0.453754
    N   N21  0.056220  0.386700  0.656200  -0.009732
    N   N22  0.098430  0.303460  0.592900  -0.444703
    N   N23  0.943780  0.499130  0.843800  0.012513
    N   N24  0.901570  0.500320  0.907100  -0.449277
    N   N25  0.056220  0.386700  0.843800  0.153518
    N   N26  0.098430  0.303460  0.907100  -0.548487
    N   N27  0.943780  0.499130  0.656200  0.128342
    N   N28  0.901570  0.500320  0.592900  -0.547087
    N   N29  0.943780  0.613300  0.343800  0.001526
    N   N30  0.901570  0.696540  0.407100  -0.446675
    N   N31  0.056220  0.500860  0.156200  0.119315
    N   N32  0.098430  0.499680  0.092900  -0.542383
    C   C5   0.876590  0.746540  0.250000  0.846557
    C   C6   0.123410  0.499730  0.250000  0.855389
    C   C7   0.123410  0.253460  0.750000  0.847244
    C   C8   0.876590  0.500270  0.750000  0.854938
    C   C9   0.703210  0.499900  0.900390  0.171905
    S   S1   0.701110  0.499890  0.532950  0.147778
    C   C10  0.796790  0.500100  0.599610  -0.151122
    H   H1   0.806270  0.500120  0.473790  0.184307
    S   S2   0.798880  0.500100  0.967050  0.061080
    C   C11  0.673880  0.499840  0.750000  -0.473467
    C   C12  0.826120  0.500160  0.750000  -0.338164
    C   C13  0.750000  0.500000  0.653090  0.039397
    C   C14  0.750000  0.500000  0.846910  0.043211
    C   C15  0.296790  0.500100  0.400390  0.178195
    S   S3   0.298880  0.500100  0.032950  0.142634
    C   C16  0.203210  0.499900  0.099610  -0.146568
    H   H2   0.193730  0.499880  0.973790  0.182650
    S   S4   0.201110  0.499890  0.467050  0.061473
    C   C17  0.326120  0.500160  0.250000  -0.475070
    C   C18  0.173880  0.499840  0.250000  -0.340350
    C   C19  0.250000  0.500000  0.153090  0.042169
    C   C20  0.250000  0.500000  0.346910  0.037657
    C   C21  0.703210  0.093680  0.400390  0.167627
    S   S5   0.701120  0.097870  0.032950  0.146998
    C   C22  0.796790  0.906320  0.099610  -0.142886
    H   H3   0.806270  0.887340  0.973790  0.181101
    S   S6   0.798880  0.902130  0.467050  0.062911
    C   C23  0.673880  0.152400  0.250000  -0.465931
    C   C24  0.826120  0.847600  0.250000  -0.336583
    C   C25  0.750000  0.000000  0.153090  0.033833
    C   C26  0.750000  0.000000  0.346910  0.042514
    C   C27  0.296790  0.906320  0.599610  0.173999
    S   S7   0.298880  0.902130  0.967050  0.140376
    C   C28  0.203210  0.093680  0.900390  -0.138166
    H   H4   0.193730  0.112660  0.026210  0.180374
    S   S8   0.201110  0.097870  0.532950  0.061645
    C   C29  0.326120  0.847600  0.750000  -0.467054
    C   C30  0.173880  0.152400  0.750000  -0.338708
    C   C31  0.250000  0.000000  0.846910  0.036514
    C   C32  0.250000  0.000000  0.653090  0.037900
    Cl  Cl1  0.685280  0.499860  0.138360  -0.116435
    Cl  Cl2  0.314720  0.500140  0.638360  -0.115074
    Cl  Cl3  0.685280  0.129570  0.638360  -0.114787
    Cl  Cl4  0.314720  0.870430  0.361640  -0.112770
