# generated using pymatgen
data_ZnH3C12(N2O7)2
_symmetry_space_group_name_H-M   'P 1'
_cell_length_a   10.90060000
_cell_length_b   37.00480000
_cell_length_c   10.00000000
_cell_angle_alpha   90.00000000
_cell_angle_beta   90.00000000
_cell_angle_gamma   106.95000000
_symmetry_Int_Tables_number   1
_chemical_formula_structural   ZnH3C12(N2O7)2
_chemical_formula_sum   'Zn4 H12 C48 N16 O56'
_cell_volume   3858.51745731
_cell_formula_units_Z   4
loop_
 _symmetry_equiv_pos_site_id
 _symmetry_equiv_pos_as_xyz
  1  'x, y, z'
loop_
 _atom_site_type_symbol
 _atom_site_label
 _atom_site_symmetry_multiplicity
 _atom_site_fract_x
 _atom_site_fract_y
 _atom_site_fract_z
 _atom_site_occupancy
  Zn  Zn1  1  0.50003000  0.50011000  0.66577000  1
  Zn  Zn2  1  0.50000000  0.49989000  0.33423000  1
  Zn  Zn3  1  0.99620000  0.99991000  0.24343000  1
  Zn  Zn4  1  0.99664000  0.00013000  0.57496000  1
  H  H1  1  0.74842000  0.74993000  0.30208000  1
  H  H2  1  0.74859000  0.75009000  0.60719000  1
  H  H3  1  0.24788000  0.25013000  0.30205000  1
  H  H4  1  0.24715000  0.24989000  0.60717000  1
  H  H5  1  0.76649000  0.49970000  0.26964000  1
  H  H6  1  0.23351000  0.50027000  0.73036000  1
  H  H7  1  0.23301000  0.49989000  0.26950000  1
  H  H8  1  0.76699000  0.50008000  0.73051000  1
  H  H9  1  0.26338000  0.00017000  0.63952000  1
  H  H10  1  0.72892000  0.99931000  0.17875000  1
  H  H11  1  0.72924000  0.99971000  0.63961000  1
  H  H12  1  0.26306000  0.99978000  0.17866000  1
  C  C1  1  0.26084000  0.50009000  0.49992000  1
  C  C2  1  0.57346000  0.57369000  0.49974000  1
  C  C3  1  0.73916000  0.49988000  0.50008000  1
  C  C4  1  0.42616000  0.42632000  0.50026000  1
  C  C5  1  0.75720000  0.00007000  0.40930000  1
  C  C6  1  0.92355000  0.92633000  0.40948000  1
  C  C7  1  0.23567000  0.00000000  0.40908000  1
  C  C8  1  0.06887000  0.07370000  0.40891000  1
  C  C9  1  0.88166000  0.88414000  0.40941000  1
  C  C10  1  0.86143000  0.86375000  0.53029000  1
  C  C11  1  0.82214000  0.82418000  0.53040000  1
  C  C12  1  0.80193000  0.80383000  0.40905000  1
  C  C13  1  0.82223000  0.82428000  0.28847000  1
  C  C14  1  0.86148000  0.86381000  0.28845000  1
  C  C15  1  0.76011000  0.76170000  0.40149000  1
  C  C16  1  0.73690000  0.73832000  0.50778000  1
  C  C17  1  0.67478000  0.67574000  0.62078000  1
  C  C18  1  0.69508000  0.69619000  0.50020000  1
  C  C19  1  0.67487000  0.67584000  0.37885000  1
  C  C20  1  0.63558000  0.63627000  0.37894000  1
  C  C21  1  0.61534000  0.61588000  0.49982000  1
  C  C22  1  0.63552000  0.63620000  0.62078000  1
  C  C23  1  0.11164000  0.11589000  0.40898000  1
  C  C24  1  0.13208000  0.13625000  0.52992000  1
  C  C25  1  0.17219000  0.17583000  0.53015000  1
  C  C26  1  0.19305000  0.19620000  0.40886000  1
  C  C27  1  0.17255000  0.17578000  0.28822000  1
  C  C28  1  0.13247000  0.13625000  0.28808000  1
  C  C29  1  0.23576000  0.23833000  0.40143000  1
  C  C30  1  0.25926000  0.26169000  0.50779000  1
  C  C31  1  0.32249000  0.32424000  0.62098000  1
  C  C32  1  0.30198000  0.30382000  0.50035000  1
  C  C33  1  0.32284000  0.32419000  0.37905000  1
  C  C34  1  0.36295000  0.36376000  0.37927000  1
  C  C35  1  0.38339000  0.38413000  0.50021000  1
  C  C36  1  0.36256000  0.36378000  0.62111000  1
  C  C37  1  0.87146000  0.49993000  0.50004000  1
  C  C38  1  0.12855000  0.50004000  0.49996000  1
  C  C39  1  0.93604000  0.49986000  0.38008000  1
  C  C40  1  0.06396000  0.50011000  0.61992000  1
  C  C41  1  0.06370000  0.49991000  0.38004000  1
  C  C42  1  0.93630000  0.50006000  0.61996000  1
  C  C43  1  0.36778000  0.99987000  0.40911000  1
  C  C44  1  0.62451000  0.99961000  0.40916000  1
  C  C45  1  0.43249000  0.99991000  0.52906000  1
  C  C46  1  0.55980000  0.99957000  0.28921000  1
  C  C47  1  0.55997000  0.99978000  0.52909000  1
  C  C48  1  0.43232000  0.99970000  0.28918000  1
  N  N1  1  0.88213000  0.88462000  0.15644000  1
  N  N2  1  0.80187000  0.80378000  0.15585000  1
  N  N3  1  0.88210000  0.88456000  0.66230000  1
  N  N4  1  0.80261000  0.80450000  0.66457000  1
  N  N5  1  0.69440000  0.69552000  0.24467000  1
  N  N6  1  0.61491000  0.61546000  0.24693000  1
  N  N7  1  0.69513000  0.69623000  0.75341000  1
  N  N8  1  0.61487000  0.61539000  0.75279000  1
  N  N9  1  0.11163000  0.11547000  0.15600000  1
  N  N10  1  0.19358000  0.19631000  0.15566000  1
  N  N11  1  0.11073000  0.11541000  0.66187000  1
  N  N12  1  0.19188000  0.19547000  0.66438000  1
  N  N13  1  0.30314000  0.30455000  0.24482000  1
  N  N14  1  0.38429000  0.38461000  0.24732000  1
  N  N15  1  0.30146000  0.30371000  0.75355000  1
  N  N16  1  0.38341000  0.38455000  0.75318000  1
  O  O1  1  0.32333000  0.50033000  0.63580000  1
  O  O2  1  0.32314000  0.49997000  0.36399000  1
  O  O3  1  0.55428000  0.55438000  0.36380000  1
  O  O4  1  0.55450000  0.55458000  0.63562000  1
  O  O5  1  0.67677000  0.49974000  0.36420000  1
  O  O6  1  0.67682000  0.49997000  0.63601000  1
  O  O7  1  0.44550000  0.44562000  0.63620000  1
  O  O8  1  0.44575000  0.44542000  0.36438000  1
  O  O9  1  0.81916000  0.99979000  0.27342000  1
  O  O10  1  0.81974000  0.00016000  0.54523000  1
  O  O11  1  0.94273000  0.94564000  0.54541000  1
  O  O12  1  0.94251000  0.94543000  0.27359000  1
  O  O13  1  0.17361000  0.00018000  0.54497000  1
  O  O14  1  0.17318000  0.99995000  0.27317000  1
  O  O15  1  0.04987000  0.05439000  0.27298000  1
  O  O16  1  0.05055000  0.05460000  0.54480000  1
  O  O17  1  0.99535000  0.91787000  0.13764000  1
  O  O18  1  0.78908000  0.87169000  0.04636000  1
  O  O19  1  0.68870000  0.77058000  0.13608000  1
  O  O20  1  0.89516000  0.81697000  0.04614000  1
  O  O21  1  0.83494000  0.91786000  0.68109000  1
  O  O22  1  0.94943000  0.87159000  0.77239000  1
  O  O23  1  0.84994000  0.77138000  0.68689000  1
  O  O24  1  0.73621000  0.81840000  0.77323000  1
  O  O25  1  0.80744000  0.72859000  0.22233000  1
  O  O26  1  0.60042000  0.68166000  0.13602000  1
  O  O27  1  0.50170000  0.58221000  0.22815000  1
  O  O28  1  0.70795000  0.62839000  0.13684000  1
  O  O29  1  0.64793000  0.72948000  0.77319000  1
  O  O30  1  0.76220000  0.68300000  0.86310000  1
  O  O31  1  0.66203000  0.58210000  0.77158000  1
  O  O32  1  0.54755000  0.62836000  0.86289000  1
  O  O33  1  0.99791000  0.08239000  0.13695000  1
  O  O34  1  0.20499000  0.12827000  0.04611000  1
  O  O35  1  0.30732000  0.22936000  0.13615000  1
  O  O36  1  0.10037000  0.18331000  0.04576000  1
  O  O37  1  0.15700000  0.08195000  0.68070000  1
  O  O38  1  0.04362000  0.12851000  0.77184000  1
  O  O39  1  0.14536000  0.22874000  0.68665000  1
  O  O40  1  0.25763000  0.18138000  0.77315000  1
  O  O41  1  0.18961000  0.27164000  0.22222000  1
  O  O42  1  0.39745000  0.31827000  0.13636000  1
  O  O43  1  0.49808000  0.41770000  0.22879000  1
  O  O44  1  0.29135000  0.37186000  0.13703000  1
  O  O45  1  0.34777000  0.27030000  0.77339000  1
  O  O46  1  0.23462000  0.31708000  0.86313000  1
  O  O47  1  0.33707000  0.41800000  0.77192000  1
  O  O48  1  0.45010000  0.37139000  0.86339000  1
  O  O49  1  0.86662000  0.49972000  0.24933000  1
  O  O50  1  0.13338000  0.50025000  0.75067000  1
  O  O51  1  0.13284000  0.49983000  0.24925000  1
  O  O52  1  0.86716000  0.50014000  0.75076000  1
  O  O53  1  0.36340000  0.00009000  0.65982000  1
  O  O54  1  0.62889000  0.99939000  0.15845000  1
  O  O55  1  0.62924000  0.99982000  0.65987000  1
  O  O56  1  0.36305000  0.99966000  0.15839000  1
