# Generated by REPEAT Assigner based on pymatgen
data_DB1-Cu2O8-irmof16_A-TDPAT_No892
_audit_creation_date              2022-05-24
_audit_creation_method            REPEAT_Assigner
_cell_length_a                    36.274700
_cell_length_b                    36.214500
_cell_length_c                    36.274700
_cell_angle_alpha                 60.054300
_cell_angle_beta                  59.999800
_cell_angle_gamma                 59.956800
_cell_volume                      33698.478765
_symmetry_space_group_name_H-M    P1
_symmetry_Int_Tables_number       1
loop_
    _symmetry_equiv_pos_site_id
    _symmetry_equiv_pos_as_xyz
    1  x,y,z
loop_
    _atom_site_type_symbol
    _atom_site_label
    _atom_site_fract_x
    _atom_site_fract_y
    _atom_site_fract_z
    _atom_type_partial_charge
    Cu  Cu1   0.464890  0.500060  0.535060  1.049279
    Cu  Cu2   0.535110  0.499940  0.464940  1.094970
    O   O1    0.443230  0.557990  0.508700  -0.416025
    O   O2    0.491290  0.441990  0.556690  -0.413969
    O   O3    0.443310  0.489970  0.508710  -0.499188
    O   O4    0.491200  0.510010  0.556670  -0.501963
    O   O5    0.556700  0.510020  0.491300  -0.471668
    O   O6    0.508790  0.490010  0.443320  -0.473776
    O   O7    0.556760  0.441960  0.491300  -0.461165
    O   O8    0.508720  0.558020  0.443320  -0.459019
    C   C1    0.465370  0.583580  0.465420  0.266696
    C   C2    0.534630  0.416430  0.534580  0.267097
    C   C3    0.465480  0.485600  0.465430  0.324824
    C   C4    0.534530  0.514410  0.534570  0.325146
    Cu  Cu3   0.000010  0.500020  0.464910  1.021880
    Cu  Cu4   0.000020  0.499920  0.535110  1.022303
    O   O9    0.990130  0.557950  0.443400  -0.431955
    O   O10   0.010030  0.441950  0.491140  -0.451028
    O   O11   0.058030  0.489920  0.443300  -0.474121
    O   O12   0.942130  0.509970  0.491240  -0.488115
    O   O13   0.942000  0.510000  0.556730  -0.431615
    O   O14   0.057880  0.489980  0.508770  -0.453740
    O   O15   0.009960  0.441940  0.556620  -0.475988
    O   O16   0.989970  0.558000  0.508890  -0.485054
    C   C5    0.985690  0.583540  0.465610  0.299674
    C   C6    0.014330  0.416400  0.534410  0.333273
    C   C7    0.083500  0.485560  0.465450  0.334846
    C   C8    0.916520  0.514380  0.534570  0.306733
    Cu  Cu5   0.535040  0.500110  0.999970  1.022184
    Cu  Cu6   0.464920  0.500010  0.999990  1.022895
    O   O17   0.508520  0.558040  0.990250  -0.453644
    O   O18   0.556830  0.442040  0.009840  -0.430516
    O   O19   0.508720  0.490030  0.057960  -0.485745
    O   O20   0.556630  0.510050  0.942130  -0.477232
    O   O21   0.491250  0.510080  0.942000  -0.452346
    O   O22   0.443330  0.490090  0.057820  -0.433381
    O   O23   0.491430  0.442020  0.009780  -0.487929
    O   O24   0.443140  0.558090  0.990100  -0.474647
    C   C9    0.465170  0.583640  0.985880  0.333008
    C   C10   0.534790  0.416490  0.014080  0.305197
    C   C11   0.465450  0.485680  0.083420  0.306294
    C   C12   0.534510  0.514450  0.916540  0.335876
    Cu  Cu7   0.999310  0.965740  0.534320  1.099296
    Cu  Cu8   0.999320  0.035870  0.464120  1.045528
    O   O25   0.008940  0.992340  0.555950  -0.476073
    O   O26   0.989530  0.943870  0.507970  -0.479125
    O   O27   0.941250  0.992130  0.555820  -0.465486
    O   O28   0.057220  0.944080  0.508100  -0.460150
    O   O29   0.057380  0.009470  0.442610  -0.415126
    O   O30   0.941410  0.057530  0.490350  -0.403665
    O   O31   0.989620  0.009270  0.442500  -0.489933
    O   O32   0.009110  0.057730  0.490470  -0.498860
    C   C13   0.013280  0.035730  0.533790  0.316851
    C   C14   0.985340  0.965880  0.464650  0.319636
    C   C15   0.915760  0.035440  0.533620  0.260385
    C   C16   0.082860  0.966170  0.464820  0.269416
    Cu  Cu9   0.465050  0.035230  0.000020  1.103640
    Cu  Cu10  0.535270  0.964910  0.000110  1.052051
    O   O33   0.491350  0.056950  0.009880  -0.462029
    O   O34   0.443490  0.008780  0.990010  -0.483471
    O   O35   0.491470  0.056770  0.942060  -0.467704
    O   O36   0.443380  0.008960  0.057840  -0.458777
    O   O37   0.508840  0.943370  0.058070  -0.414459
    O   O38   0.556950  0.991190  0.942300  -0.417490
    O   O39   0.508970  0.943200  0.990180  -0.500690
    O   O40   0.556820  0.991360  0.010140  -0.511013
    C   C17   0.534650  0.034790  0.014370  0.337183
    C   C18   0.465670  0.965360  0.985770  0.344647
    C   C19   0.534830  0.034530  0.916660  0.263280
    C   C20   0.465500  0.965610  0.083480  0.260508
    Cu  Cu11  0.000890  0.965610  0.000610  1.030822
    Cu  Cu12  0.000980  0.035750  0.000800  1.014217
    O   O41   0.943050  0.992210  0.010310  -0.462208
    O   O42   0.058880  0.943740  0.990770  -0.435795
    O   O43   0.011070  0.991990  0.942620  -0.498413
    O   O44   0.990850  0.943970  0.058460  -0.482901
    O   O45   0.990810  0.009360  0.058790  -0.454183
    O   O46   0.011010  0.057400  0.942960  -0.410177
    O   O47   0.058890  0.009150  0.991030  -0.478161
    O   O48   0.942990  0.057610  0.010660  -0.470205
    C   C21   0.917480  0.035610  0.014770  0.338413
    C   C22   0.084390  0.965750  0.986640  0.295536
    C   C23   0.015470  0.035290  0.917260  0.307386
    C   C24   0.986400  0.966060  0.084150  0.341657
    C   C25   0.697740  0.527160  0.651310  0.980366
    N   N1    0.691270  0.527170  0.617690  -0.875871
    C   C26   0.651230  0.527170  0.623870  0.961462
    N   N2    0.617610  0.527180  0.663950  -0.854871
    C   C27   0.623790  0.527180  0.697810  0.973654
    N   N3    0.663870  0.527170  0.691340  -0.852547
    C   C28   0.611160  0.514360  0.796500  -0.130989
    C   C29   0.579440  0.527280  0.776760  0.395479
    N   N4    0.587230  0.528840  0.735310  -0.580270
    C   C30   0.577990  0.514330  0.611210  -0.099438
    C   C31   0.616530  0.527260  0.579520  0.392703
    N   N5    0.648630  0.528830  0.587310  -0.595931
    N   N6    0.735240  0.528810  0.648720  -0.585446
    C   C32   0.776700  0.527240  0.616620  0.391360
    C   C33   0.796470  0.514340  0.578020  -0.092358
    C   C34   0.624570  0.539080  0.533520  -0.175841
    C   C35   0.596460  0.536320  0.519640  -0.167722
    C   C36   0.558930  0.520920  0.550760  0.309702
    C   C37   0.549690  0.511350  0.597050  -0.208450
    C   C38   0.841900  0.511360  0.549710  -0.264613
    C   C39   0.869400  0.520900  0.559000  0.364582
    C   C40   0.847620  0.536250  0.596600  -0.199766
    C   C41   0.802870  0.539010  0.624720  -0.156815
    C   C42   0.533400  0.539090  0.802960  -0.183017
    C   C43   0.519520  0.536340  0.847700  -0.168167
    C   C44   0.550690  0.520960  0.869430  0.311179
    C   C45   0.597010  0.511390  0.841930  -0.209696
    H   H1    0.561090  0.532340  0.731330  0.356108
    H   H2    0.675250  0.532330  0.561180  0.370656
    H   H3    0.731250  0.532300  0.675360  0.361682
    H   H4    0.644770  0.506260  0.778170  0.097409
    H   H5    0.570820  0.506230  0.644790  0.086441
    H   H6    0.778150  0.506270  0.570800  0.090155
    H   H7    0.651470  0.549580  0.509290  0.110828
    H   H8    0.789700  0.549480  0.651670  0.086763
    H   H9    0.509150  0.549580  0.789810  0.105749
    C   C46   0.348760  0.472870  0.302170  0.980152
    N   N7    0.382380  0.472860  0.308650  -0.875726
    C   C47   0.376200  0.472850  0.348690  0.961942
    N   N8    0.336120  0.472840  0.382300  -0.856188
    C   C48   0.302260  0.472840  0.376130  0.974371
    N   N9    0.308730  0.472850  0.336040  -0.853129
    C   C49   0.203530  0.485660  0.388790  -0.131806
    C   C50   0.223310  0.472740  0.420480  0.396585
    N   N10   0.264770  0.471180  0.412690  -0.580532
    C   C51   0.388830  0.485690  0.421960  -0.099364
    C   C52   0.420550  0.472750  0.383380  0.392863
    N   N11   0.412760  0.471190  0.351280  -0.596018
    N   N12   0.351350  0.471230  0.264670  -0.585094
    C   C53   0.383440  0.472800  0.223210  0.390067
    C   C54   0.422000  0.485700  0.203480  -0.091314
    C   C55   0.466590  0.460940  0.375310  -0.176624
    C   C56   0.480470  0.463700  0.403430  -0.166333
    C   C57   0.449300  0.479090  0.441000  0.308291
    C   C58   0.402980  0.488660  0.450270  -0.208033
    C   C59   0.450300  0.488690  0.158050  -0.264496
    C   C60   0.441040  0.479160  0.130530  0.363821
    C   C61   0.403490  0.463800  0.152260  -0.199498
    C   C62   0.375380  0.461040  0.197000  -0.156470
    C   C63   0.197150  0.460930  0.466490  -0.184307
    C   C64   0.152410  0.463670  0.480370  -0.168251
    C   C65   0.130620  0.479060  0.449250  0.311595
    C   C66   0.158100  0.488630  0.402960  -0.209586
    H   H10   0.268760  0.467670  0.438810  0.356048
    H   H11   0.438900  0.467690  0.324640  0.370519
    H   H12   0.324720  0.467730  0.268650  0.361745
    H   H13   0.221840  0.493760  0.355210  0.097628
    H   H14   0.355220  0.493790  0.429160  0.086650
    H   H15   0.429200  0.493770  0.221830  0.089401
    H   H16   0.490850  0.450450  0.348370  0.110689
    H   H17   0.348460  0.450560  0.210140  0.086730
    H   H18   0.210330  0.450430  0.490710  0.106228
    C   C67   0.301920  0.876580  0.348450  0.927528
    N   N13   0.308390  0.836490  0.382070  -0.812917
    C   C68   0.348480  0.802560  0.375960  0.927013
    N   N14   0.382160  0.808980  0.335940  -0.814297
    C   C69   0.375980  0.849030  0.302070  0.925183
    N   N15   0.335840  0.882710  0.308470  -0.814403
    C   C70   0.388710  0.922250  0.203380  -0.069471
    C   C71   0.420410  0.883670  0.223200  0.352594
    N   N16   0.412590  0.851580  0.264630  -0.572552
    C   C72   0.421870  0.703690  0.388710  -0.068689
    C   C73   0.383210  0.723550  0.420360  0.351923
    N   N17   0.351060  0.765060  0.412520  -0.574466
    N   N18   0.264360  0.913200  0.350980  -0.575451
    C   C74   0.222840  0.921050  0.383020  0.352962
    C   C75   0.203090  0.889340  0.421560  -0.071588
    C   C76   0.375100  0.697420  0.466370  -0.161395
    C   C77   0.403260  0.652620  0.480290  -0.181845
    C   C78   0.440910  0.630750  0.449190  0.354599
    C   C79   0.450210  0.658200  0.402900  -0.245507
    C   C80   0.157600  0.903550  0.449790  -0.240515
    C   C81   0.130030  0.949930  0.440470  0.347142
    C   C82   0.151780  0.981090  0.402940  -0.177554
    C   C83   0.196590  0.967150  0.374900  -0.162862
    C   C84   0.466470  0.875580  0.197090  -0.165075
    C   C85   0.480390  0.903670  0.152370  -0.177061
    C   C86   0.449250  0.941230  0.130560  0.354744
    C   C87   0.402900  0.950530  0.157980  -0.245065
    H   H19   0.438750  0.824920  0.268660  0.358400
    H   H20   0.324390  0.769100  0.438610  0.357226
    H   H21   0.268350  0.939340  0.324360  0.358605
    H   H22   0.355090  0.929470  0.221650  0.081885
    H   H23   0.429100  0.721980  0.355130  0.081328
    H   H24   0.221470  0.855690  0.428790  0.081738
    H   H25   0.348110  0.710650  0.490570  0.104753
    H   H26   0.209730  0.991400  0.347990  0.104388
    H   H27   0.490710  0.848640  0.210290  0.104204
    C   C88   0.651670  0.123580  0.698020  0.923520
    N   N19   0.618000  0.163700  0.691500  -0.812078
    C   C89   0.624170  0.197540  0.651460  0.928347
    N   N20   0.664290  0.191010  0.617900  -0.814178
    C   C90   0.698220  0.150940  0.624120  0.923343
    N   N21   0.691760  0.117340  0.664210  -0.812390
    C   C91   0.797050  0.077590  0.611600  -0.068625
    C   C92   0.777280  0.116130  0.579870  0.350985
    N   N22   0.735760  0.148280  0.587610  -0.570670
    C   C93   0.611430  0.296310  0.578170  -0.067885
    C   C94   0.579720  0.276540  0.616700  0.353186
    N   N23   0.587550  0.235080  0.648820  -0.576555
    N   N24   0.649100  0.087030  0.735530  -0.569966
    C   C95   0.616960  0.079290  0.776950  0.349658
    C   C96   0.578290  0.111100  0.796640  -0.069607
    C   C97   0.533660  0.302740  0.624700  -0.161857
    C   C98   0.519740  0.347500  0.596550  -0.182345
    C   C99   0.550880  0.369280  0.559030  0.354747
    C   C100  0.597230  0.341760  0.549840  -0.245442
    C   C101  0.549950  0.097000  0.842040  -0.244263
    C   C102  0.559290  0.050650  0.869570  0.357559
    C   C103  0.596960  0.019400  0.847880  -0.179367
    C   C104  0.625110  0.033220  0.803170  -0.164585
    C   C105  0.803520  0.124100  0.533890  -0.163079
    C   C106  0.848320  0.095930  0.520070  -0.180005
    C   C107  0.870080  0.058410  0.551240  0.363331
    C   C108  0.842540  0.049230  0.597510  -0.247183
    H   H28   0.731770  0.174890  0.561470  0.358922
    H   H29   0.561390  0.231120  0.675420  0.357635
    H   H30   0.675790  0.060850  0.731580  0.356821
    H   H31   0.778690  0.070460  0.645170  0.081571
    H   H32   0.645050  0.277970  0.571020  0.080694
    H   H33   0.571040  0.144720  0.778290  0.081455
    H   H34   0.509430  0.289570  0.651590  0.105291
    H   H35   0.652120  0.008910  0.790050  0.105566
    H   H36   0.790350  0.151000  0.509630  0.101331
    C   C109  0.973240  0.876530  0.302950  0.966573
    N   N25   0.973220  0.836440  0.309310  -0.850491
    C   C110  0.973150  0.802520  0.349310  0.980870
    N   N26   0.973070  0.808950  0.383000  -0.874277
    C   C111  0.973090  0.849010  0.376930  0.952053
    N   N27   0.973160  0.882670  0.336880  -0.846561
    C   C112  0.985850  0.922240  0.389850  -0.100649
    C   C113  0.972900  0.883660  0.421450  0.393923
    N   N28   0.971360  0.851560  0.413550  -0.589229
    C   C114  0.985840  0.703650  0.422430  -0.096489
    C   C115  0.972990  0.723510  0.383830  0.397378
    N   N29   0.971490  0.765020  0.351790  -0.589014
    N   N30   0.971660  0.913140  0.265490  -0.577449
    C   C116  0.973300  0.920980  0.224000  0.398320
    C   C117  0.986220  0.889260  0.204160  -0.132607
    C   C118  0.961220  0.697370  0.375650  -0.161253
    C   C119  0.963920  0.652570  0.403680  -0.200440
    C   C120  0.979220  0.630710  0.441270  0.369322
    C   C121  0.988760  0.658170  0.450650  -0.264015
    C   C122  0.989280  0.903460  0.158720  -0.207438
    C   C123  0.979810  0.949840  0.131270  0.307364
    C   C124  0.964440  0.981000  0.153100  -0.167331
    C   C125  0.961600  0.967080  0.197870  -0.185446
    C   C126  0.961030  0.875580  0.467490  -0.184497
    C   C127  0.963740  0.903680  0.481480  -0.158520
    C   C128  0.979150  0.941230  0.450440  0.311754
    C   C129  0.988790  0.950520  0.404120  -0.206933
    H   H37   0.967810  0.824910  0.439630  0.370773
    H   H38   0.968040  0.769050  0.325130  0.362232
    H   H39   0.968160  0.939290  0.269550  0.353715
    H   H40   0.994000  0.929440  0.356250  0.084390
    H   H41   0.993910  0.721950  0.429700  0.090750
    H   H42   0.994240  0.855610  0.222450  0.097877
    H   H43   0.950790  0.710600  0.348700  0.088156
    H   H44   0.951120  0.991340  0.211080  0.106526
    H   H45   0.950510  0.848650  0.491650  0.111529
    C   C130  0.026570  0.123550  0.650670  0.960280
    N   N31   0.026660  0.163660  0.617100  -0.850325
    C   C131  0.026710  0.197510  0.623360  0.966797
    N   N32   0.026660  0.191000  0.663470  -0.849613
    C   C132  0.026570  0.150920  0.697280  0.978454
    N   N33   0.026530  0.117320  0.690730  -0.875679
    C   C133  0.013560  0.077600  0.795910  -0.098695
    C   C134  0.026550  0.116130  0.776240  0.393395
    N   N34   0.028190  0.148280  0.734820  -0.586635
    C   C135  0.014020  0.296290  0.610880  -0.139287
    C   C136  0.026950  0.276510  0.579130  0.401671
    N   N35   0.028450  0.235040  0.586840  -0.577693
    N   N36   0.028170  0.086990  0.648000  -0.596871
    C   C137  0.026630  0.079250  0.615840  0.392449
    C   C138  0.013820  0.111040  0.577260  -0.098465
    C   C139  0.038830  0.302700  0.533150  -0.189000
    C   C140  0.036150  0.347460  0.519340  -0.165025
    C   C141  0.020770  0.369250  0.550530  0.307075
    C   C142  0.011120  0.341740  0.596800  -0.201688
    C   C143  0.010860  0.096930  0.548880  -0.210538
    C   C144  0.020310  0.050590  0.558100  0.320041
    C   C145  0.035570  0.019340  0.595680  -0.170183
    C   C146  0.038310  0.033170  0.623870  -0.176441
    C   C147  0.038320  0.124120  0.802500  -0.159588
    C   C148  0.035490  0.095960  0.847220  -0.189171
    C   C149  0.020060  0.058440  0.868880  0.342047
    C   C150  0.010510  0.049250  0.841310  -0.250154
    H   H46   0.031730  0.174890  0.730890  0.363177
    H   H47   0.031970  0.231070  0.560680  0.354769
    H   H48   0.031600  0.060820  0.674610  0.371770
    H   H49   0.005490  0.070460  0.777530  0.093351
    H   H50   0.005870  0.277960  0.644450  0.099292
    H   H51   0.005810  0.144670  0.570100  0.084687
    H   H52   0.049330  0.289520  0.508880  0.107227
    H   H53   0.048710  0.008870  0.650810  0.110893
    H   H54   0.048850  0.151020  0.789410  0.083232
    C   C151  0.347410  0.876650  0.974210  0.959518
    N   N37   0.381150  0.836550  0.974090  -0.851299
    C   C152  0.375120  0.802630  0.973920  0.970191
    N   N38   0.335080  0.809060  0.973870  -0.850324
    C   C153  0.301100  0.849120  0.973990  0.974842
    N   N39   0.307410  0.882790  0.974160  -0.873039
    C   C154  0.202210  0.922360  0.986960  -0.096768
    C   C155  0.222120  0.883780  0.973900  0.395954
    N   N40   0.263650  0.851680  0.972270  -0.581802
    C   C156  0.388140  0.703760  0.986350  -0.134722
    C   C157  0.419740  0.723610  0.973560  0.397475
    N   N41   0.411790  0.765120  0.972170  -0.579725
    N   N42   0.349850  0.913270  0.972730  -0.598452
    C   C158  0.381860  0.921110  0.974390  0.399729
    C   C159  0.420490  0.889390  0.987220  -0.103477
    C   C160  0.465820  0.697470  0.961720  -0.184889
    C   C161  0.479860  0.652670  0.964300  -0.170101
    C   C162  0.448820  0.630810  0.979540  0.311666
    C   C163  0.402450  0.658280  0.989160  -0.205823
    C   C164  0.448680  0.903600  0.990320  -0.200130
    C   C165  0.439240  0.949970  0.980970  0.287051
    C   C166  0.401630  0.981140  0.965690  -0.154632
    C   C167  0.373620  0.967210  0.962810  -0.183238
    C   C168  0.196040  0.875690  0.962010  -0.163045
    C   C169  0.151250  0.903790  0.964800  -0.201330
    C   C170  0.129330  0.941350  0.980310  0.383884
    C   C171  0.156720  0.950650  0.989970  -0.267177
    H   H55   0.267750  0.825020  0.968660  0.361489
    H   H56   0.437870  0.769160  0.968730  0.355707
    H   H57   0.323160  0.939410  0.969300  0.371370
    H   H58   0.220460  0.929570  0.995120  0.089620
    H   H59   0.354500  0.722060  0.994470  0.098149
    H   H60   0.427810  0.855740  0.995150  0.085621
    H   H61   0.489980  0.710700  0.951320  0.106924
    H   H62   0.346640  0.991460  0.952400  0.110817
    H   H63   0.209320  0.848750  0.951420  0.087780
    C   C172  0.699030  0.123610  0.025530  0.967562
    N   N43   0.692400  0.163740  0.025730  -0.851001
    C   C173  0.652270  0.197590  0.025860  0.980070
    N   N44   0.618710  0.191070  0.025810  -0.874791
    C   C174  0.625050  0.150990  0.025610  0.959039
    N   N45   0.665230  0.117390  0.025480  -0.849734
    C   C175  0.612720  0.077650  0.012410  -0.105920
    C   C176  0.580890  0.116190  0.025500  0.395913
    N   N46   0.588540  0.148340  0.027220  -0.595866
    C   C177  0.578700  0.296360  0.013440  -0.093405
    C   C178  0.617290  0.276590  0.026320  0.394006
    N   N47   0.649520  0.235120  0.027710  -0.587546
    N   N48   0.736640  0.087060  0.027030  -0.579325
    C   C179  0.778080  0.079310  0.025470  0.404155
    C   C180  0.797690  0.111110  0.012750  -0.139004
    C   C181  0.625210  0.302780  0.038270  -0.160053
    C   C182  0.596950  0.347550  0.035700  -0.197061
    C   C183  0.559370  0.369330  0.020380  0.361326
    C   C184  0.550240  0.341820  0.010660  -0.261282
    C   C185  0.843130  0.097000  0.009740  -0.200573
    C   C186  0.870790  0.050650  0.019070  0.295562
    C   C187  0.849170  0.019410  0.034240  -0.151723
    C   C188  0.804420  0.033240  0.037030  -0.198420
    C   C189  0.534870  0.124180  0.037290  -0.179615
    C   C190  0.521130  0.096020  0.034390  -0.157377
    C   C191  0.552400  0.058490  0.018850  0.290420
    C   C192  0.598700  0.049300  0.009290  -0.194790
    H   H64   0.562320  0.174960  0.030830  0.371729
    H   H65   0.676130  0.231150  0.031220  0.362504
    H   H66   0.732760  0.060880  0.030390  0.355177
    H   H67   0.646310  0.070510  0.004310  0.086712
    H   H68   0.571600  0.278030  0.005240  0.089045
    H   H69   0.779250  0.144740  0.004830  0.098909
    H   H70   0.652150  0.289610  0.048730  0.088112
    H   H71   0.791370  0.008930  0.047360  0.109414
    H   H72   0.510550  0.151080  0.047890  0.108187
    Br  Br1   0.450530  0.554390  0.882650  -0.028563
    Br  Br2   0.645560  0.490740  0.869110  0.001982
    Br  Br3   0.882550  0.554240  0.612670  -0.021679
    Br  Br4   0.869130  0.490750  0.494540  0.018182
    Br  Br5   0.612440  0.554390  0.450700  -0.040966
    Br  Br6   0.494620  0.490670  0.645550  0.000283
    Br  Br7   0.117510  0.445610  0.549310  -0.028492
    Br  Br8   0.130850  0.509290  0.354470  0.001461
    Br  Br9   0.387470  0.445810  0.117270  -0.022059
    Br  Br10  0.505410  0.509300  0.130890  0.018119
    Br  Br11  0.549460  0.445630  0.387390  -0.041032
    Br  Br12  0.354420  0.509330  0.505410  -0.000277
    Br  Br13  0.549410  0.887600  0.117560  -0.034879
    Br  Br14  0.354390  0.005670  0.130690  0.000375
    Br  Br15  0.116730  0.050160  0.386850  -0.035462
    Br  Br16  0.130410  0.855010  0.504870  0.000759
    Br  Br17  0.387160  0.617770  0.549230  -0.035226
    Br  Br18  0.505460  0.630840  0.354460  0.001072
    Br  Br19  0.883330  0.111820  0.451150  -0.042120
    Br  Br20  0.869760  0.994170  0.646060  0.001750
    Br  Br21  0.613110  0.950360  0.882880  -0.034856
    Br  Br22  0.494670  0.145670  0.869150  0.001233
    Br  Br23  0.450720  0.382450  0.612480  -0.035127
    Br  Br24  0.645740  0.368980  0.494770  0.001170
    Br  Br25  0.945600  0.887630  0.550440  -0.040492
    Br  Br26  0.009490  0.005650  0.355760  -0.002077
    Br  Br27  0.946540  0.050080  0.118240  -0.027554
    Br  Br28  0.009910  0.854910  0.131400  0.001853
    Br  Br29  0.945920  0.617710  0.387490  -0.021936
    Br  Br30  0.009300  0.630830  0.505820  0.017867
    Br  Br31  0.053510  0.111860  0.882270  -0.031209
    Br  Br32  0.989780  0.994190  0.868390  0.017610
    Br  Br33  0.053430  0.950300  0.611640  -0.040037
    Br  Br34  0.990390  0.145590  0.493730  0.000149
    Br  Br35  0.054320  0.382390  0.450420  -0.028653
    Br  Br36  0.990450  0.368980  0.645390  0.000658
    Br  Br37  0.116470  0.887730  0.946620  -0.019398
    Br  Br38  0.129280  0.005790  0.010820  0.015792
    Br  Br39  0.385350  0.050210  0.947970  -0.039275
    Br  Br40  0.503910  0.855040  0.010810  -0.002237
    Br  Br41  0.548900  0.617800  0.946200  -0.027808
    Br  Br42  0.354080  0.630930  0.009620  0.000802
    Br  Br43  0.452160  0.111920  0.052450  -0.048913
    Br  Br44  0.647410  0.994220  0.988410  -0.001553
    Br  Br45  0.884360  0.950360  0.051920  -0.026772
    Br  Br46  0.870110  0.145660  0.989400  -0.001546
    Br  Br47  0.612780  0.382490  0.053960  -0.022641
    Br  Br48  0.495100  0.369050  0.990070  0.018011
