# generated using pymatgen
data_LiCuH8C19NO13
_symmetry_space_group_name_H-M   'P 1'
_cell_length_a   34.99640000
_cell_length_b   24.55320000
_cell_length_c   10.00000000
_cell_angle_alpha   90.00000000
_cell_angle_beta   90.00000000
_cell_angle_gamma   135.37700000
_symmetry_Int_Tables_number   1
_chemical_formula_structural   LiCuH8C19NO13
_chemical_formula_sum   'Li4 Cu4 H32 C76 N4 O52'
_cell_volume   6035.87141306
_cell_formula_units_Z   4
loop_
 _symmetry_equiv_pos_site_id
 _symmetry_equiv_pos_as_xyz
  1  'x, y, z'
loop_
 _atom_site_type_symbol
 _atom_site_label
 _atom_site_symmetry_multiplicity
 _atom_site_fract_x
 _atom_site_fract_y
 _atom_site_fract_z
 _atom_site_occupancy
  Li  Li1  1  0.86738000  0.49848000  0.01201000  1
  Li  Li2  1  0.63236000  0.50102000  0.89716000  1
  Li  Li3  1  0.13115000  0.49857000  0.01198000  1
  Li  Li4  1  0.36881000  0.50132000  0.89715000  1
  Cu  Cu1  1  0.50013000  0.50026000  0.62726000  1
  Cu  Cu2  1  0.49987000  0.49973000  0.37274000  1
  Cu  Cu3  1  0.99962000  0.49924000  0.28188000  1
  Cu  Cu4  1  0.00008000  0.50016000  0.53639000  1
  H  H1  1  0.88026000  0.50023000  0.62461000  1
  H  H2  1  0.81097000  0.50024000  0.62594000  1
  H  H3  1  0.80973000  0.49900000  0.19334000  1
  H  H4  1  0.69001000  0.50050000  0.71585000  1
  H  H5  1  0.68879000  0.49926000  0.28324000  1
  H  H6  1  0.61950000  0.49927000  0.28457000  1
  H  H7  1  0.74956000  0.49931000  0.30205000  1
  H  H8  1  0.75019000  0.50019000  0.60716000  1
  H  H9  1  0.12008000  0.50046000  0.62457000  1
  H  H10  1  0.18939000  0.50047000  0.62591000  1
  H  H11  1  0.18934000  0.49913000  0.19331000  1
  H  H12  1  0.31061000  0.50075000  0.71583000  1
  H  H13  1  0.31056000  0.49942000  0.28322000  1
  H  H14  1  0.37986000  0.49943000  0.28455000  1
  H  H15  1  0.24984000  0.49947000  0.30202000  1
  H  H16  1  0.25011000  0.50041000  0.60714000  1
  H  H17  1  0.13617000  0.81769000  0.06895000  1
  H  H18  1  0.21976000  0.98495000  0.23918000  1
  H  H19  1  0.18198000  0.81908000  0.74395000  1
  H  H20  1  0.13282000  0.81171000  0.74410000  1
  H  H21  1  0.23453000  0.01492000  0.66900000  1
  H  H22  1  0.31812000  0.18218000  0.83924000  1
  H  H23  1  0.32148000  0.18816000  0.16408000  1
  H  H24  1  0.36308000  0.18043000  0.16483000  1
  H  H25  1  0.86348000  0.18043000  0.06066000  1
  H  H26  1  0.78004000  0.01389000  0.23298000  1
  H  H27  1  0.81860000  0.18196000  0.73523000  1
  H  H28  1  0.86772000  0.18924000  0.73573000  1
  H  H29  1  0.76582000  0.98572000  0.66316000  1
  H  H30  1  0.68237000  0.81918000  0.83548000  1
  H  H31  1  0.67813000  0.81037000  0.16042000  1
  H  H32  1  0.63658000  0.81818000  0.16063000  1
  C  C1  1  0.42730000  0.35458000  0.50091000  1
  C  C2  1  0.57270000  0.64541000  0.49909000  1
  C  C3  1  0.42839000  0.50010000  0.49999000  1
  C  C4  1  0.57161000  0.49989000  0.50000000  1
  C  C5  1  0.92732000  0.35429000  0.41070000  1
  C  C6  1  0.07238000  0.64511000  0.40758000  1
  C  C7  1  0.07156000  0.49979000  0.40912000  1
  C  C8  1  0.92814000  0.49961000  0.40916000  1
  C  C9  1  0.88547000  0.49961000  0.40916000  1
  C  C10  1  0.86503000  0.49996000  0.53008000  1
  C  C11  1  0.82501000  0.49996000  0.53024000  1
  C  C12  1  0.80424000  0.49962000  0.40893000  1
  C  C13  1  0.82473000  0.49927000  0.28832000  1
  C  C14  1  0.86472000  0.49927000  0.28824000  1
  C  C15  1  0.76162000  0.49960000  0.40144000  1
  C  C16  1  0.73814000  0.49990000  0.50777000  1
  C  C17  1  0.67502000  0.50023000  0.62087000  1
  C  C18  1  0.69552000  0.49988000  0.50026000  1
  C  C19  1  0.67475000  0.49954000  0.37894000  1
  C  C20  1  0.63472000  0.49954000  0.37910000  1
  C  C21  1  0.61428000  0.49989000  0.50001000  1
  C  C22  1  0.63503000  0.50023000  0.62094000  1
  C  C23  1  0.11424000  0.49979000  0.40913000  1
  C  C24  1  0.13503000  0.50017000  0.53004000  1
  C  C25  1  0.17506000  0.50017000  0.53021000  1
  C  C26  1  0.19547000  0.49980000  0.40890000  1
  C  C27  1  0.17462000  0.49943000  0.28829000  1
  C  C28  1  0.13463000  0.49942000  0.28821000  1
  C  C29  1  0.23807000  0.49978000  0.40142000  1
  C  C30  1  0.26187000  0.50011000  0.50774000  1
  C  C31  1  0.32533000  0.50046000  0.62085000  1
  C  C32  1  0.30447000  0.50009000  0.50024000  1
  C  C33  1  0.32488000  0.49972000  0.37892000  1
  C  C34  1  0.36491000  0.49972000  0.37909000  1
  C  C35  1  0.38571000  0.50009000  0.50000000  1
  C  C36  1  0.36532000  0.50047000  0.62092000  1
  C  C37  1  0.11568000  0.73165000  0.40704000  1
  C  C38  1  0.13666000  0.77372000  0.52793000  1
  C  C39  1  0.17732000  0.85499000  0.52710000  1
  C  C40  1  0.19783000  0.89585000  0.40556000  1
  C  C41  1  0.17715000  0.85438000  0.28522000  1
  C  C42  1  0.13650000  0.77314000  0.28558000  1
  C  C43  1  0.32253000  0.14531000  0.62326000  1
  C  C44  1  0.30184000  0.10384000  0.50292000  1
  C  C45  1  0.32235000  0.14470000  0.38138000  1
  C  C46  1  0.36302000  0.22598000  0.38056000  1
  C  C47  1  0.38400000  0.26804000  0.50145000  1
  C  C48  1  0.36317000  0.22655000  0.62290000  1
  C  C49  1  0.88448000  0.26793000  0.39746000  1
  C  C50  1  0.86363000  0.22637000  0.51887000  1
  C  C51  1  0.82293000  0.14510000  0.51906000  1
  C  C52  1  0.80225000  0.10372000  0.39803000  1
  C  C53  1  0.82279000  0.14469000  0.27717000  1
  C  C54  1  0.86348000  0.22593000  0.27652000  1
  C  C55  1  0.67772000  0.85519000  0.61883000  1
  C  C56  1  0.69827000  0.89615000  0.49797000  1
  C  C57  1  0.67758000  0.85478000  0.37694000  1
  C  C58  1  0.63688000  0.77351000  0.37714000  1
  C  C59  1  0.61604000  0.73195000  0.49854000  1
  C  C60  1  0.63704000  0.77395000  0.61948000  1
  C  C61  1  0.11495000  0.72993000  0.15332000  1
  C  C62  1  0.19895000  0.89782000  0.15318000  1
  C  C63  1  0.11527000  0.73111000  0.66078000  1
  C  C64  1  0.19920000  0.89887000  0.65872000  1
  C  C65  1  0.30072000  0.10187000  0.75531000  1
  C  C66  1  0.38472000  0.26976000  0.75517000  1
  C  C67  1  0.30047000  0.10083000  0.24976000  1
  C  C68  1  0.38440000  0.26858000  0.24771000  1
  C  C69  1  0.88487000  0.26859000  0.14372000  1
  C  C70  1  0.80079000  0.10070000  0.14567000  1
  C  C71  1  0.88521000  0.26953000  0.65118000  1
  C  C72  1  0.80120000  0.10177000  0.65122000  1
  C  C73  1  0.69972000  0.89918000  0.75033000  1
  C  C74  1  0.61565000  0.73129000  0.75228000  1
  C  C75  1  0.69931000  0.89810000  0.24478000  1
  C  C76  1  0.61530000  0.73035000  0.24482000  1
  N  N1  1  0.23949000  0.97910000  0.40148000  1
  N  N2  1  0.26019000  0.02059000  0.50701000  1
  N  N3  1  0.76055000  0.02046000  0.39498000  1
  N  N4  1  0.73996000  0.97941000  0.50103000  1
  O  O1  1  0.44967000  0.39943000  0.61931000  1
  O  O2  1  0.55057000  0.60126000  0.61804000  1
  O  O3  1  0.45044000  0.50046000  0.61867000  1
  O  O4  1  0.54980000  0.50023000  0.61868000  1
  O  O5  1  0.54957000  0.49955000  0.38133000  1
  O  O6  1  0.45019000  0.49973000  0.38132000  1
  O  O7  1  0.55031000  0.60064000  0.38069000  1
  O  O8  1  0.44945000  0.39873000  0.38196000  1
  O  O9  1  0.94940000  0.39846000  0.29154000  1
  O  O10  1  0.05009000  0.60029000  0.28938000  1
  O  O11  1  0.04953000  0.49948000  0.29044000  1
  O  O12  1  0.94996000  0.49927000  0.29047000  1
  O  O13  1  0.95019000  0.49995000  0.52783000  1
  O  O14  1  0.04974000  0.50011000  0.52780000  1
  O  O15  1  0.05040000  0.60103000  0.52673000  1
  O  O16  1  0.94961000  0.39911000  0.52890000  1
  O  O17  1  0.88262000  0.49894000  0.17486000  1
  O  O18  1  0.61713000  0.50056000  0.73431000  1
  O  O19  1  0.11640000  0.49907000  0.17483000  1
  O  O20  1  0.38356000  0.50082000  0.73430000  1
  O  O21  1  0.11414000  0.76156000  0.04717000  1
  O  O22  1  0.09706000  0.66502000  0.14588000  1
  O  O23  1  0.21680000  0.96684000  0.14505000  1
  O  O24  1  0.19870000  0.86808000  0.05356000  1
  O  O25  1  0.14791000  0.76309000  0.76649000  1
  O  O26  1  0.06830000  0.66636000  0.66909000  1
  O  O27  1  0.16697000  0.86791000  0.76511000  1
  O  O28  1  0.24621000  0.96369000  0.66537000  1
  O  O29  1  0.24956000  0.03299000  0.76321000  1
  O  O30  1  0.33007000  0.13150000  0.85512000  1
  O  O31  1  0.35222000  0.23827000  0.86109000  1
  O  O32  1  0.43171000  0.33455000  0.76279000  1
  O  O33  1  0.29939000  0.13192000  0.14315000  1
  O  O34  1  0.28256000  0.03589000  0.24330000  1
  O  O35  1  0.38509000  0.23647000  0.14222000  1
  O  O36  1  0.40229000  0.33345000  0.23920000  1
  O  O37  1  0.88551000  0.23648000  0.03813000  1
  O  O38  1  0.90280000  0.33349000  0.13534000  1
  O  O39  1  0.78290000  0.03162000  0.13857000  1
  O  O40  1  0.80095000  0.13005000  0.04554000  1
  O  O41  1  0.85272000  0.23803000  0.75713000  1
  O  O42  1  0.93222000  0.33429000  0.65883000  1
  O  O43  1  0.83358000  0.13315000  0.75738000  1
  O  O44  1  0.75419000  0.03701000  0.65854000  1
  O  O45  1  0.75091000  0.96806000  0.75754000  1
  O  O46  1  0.67051000  0.86999000  0.85037000  1
  O  O47  1  0.64829000  0.76320000  0.85797000  1
  O  O48  1  0.56865000  0.66656000  0.76057000  1
  O  O49  1  0.70022000  0.86653000  0.13873000  1
  O  O50  1  0.71726000  0.96304000  0.23737000  1
  O  O51  1  0.61451000  0.76205000  0.13877000  1
  O  O52  1  0.59736000  0.66542000  0.23726000  1
