# generated using pymatgen
data_Cu2H18C25(N2O5)2
_symmetry_space_group_name_H-M   'P 1'
_cell_length_a   10.70030000
_cell_length_b   34.99640000
_cell_length_c   10.00000000
_cell_angle_alpha   90.00000000
_cell_angle_beta   90.00000000
_cell_angle_gamma   90.09360000
_symmetry_Int_Tables_number   1
_chemical_formula_structural   Cu2H18C25(N2O5)2
_chemical_formula_sum   'Cu4 H36 C50 N8 O20'
_cell_volume   3744.71479236
_cell_formula_units_Z   2
loop_
 _symmetry_equiv_pos_site_id
 _symmetry_equiv_pos_as_xyz
  1  'x, y, z'
loop_
 _atom_site_type_symbol
 _atom_site_label
 _atom_site_symmetry_multiplicity
 _atom_site_fract_x
 _atom_site_fract_y
 _atom_site_fract_z
 _atom_site_occupancy
  Cu  Cu1  1  0.50000000  0.50000000  0.62726000  1
  Cu  Cu2  1  0.50001000  0.50000000  0.37274000  1
  Cu  Cu3  1  0.50049000  0.00000000  0.28188000  1
  Cu  Cu4  1  0.49987000  0.00001000  0.53639000  1
  H  H1  1  0.50005000  0.88015000  0.62461000  1
  H  H2  1  0.50004000  0.81085000  0.62594000  1
  H  H3  1  0.49992000  0.68976000  0.71585000  1
  H  H4  1  0.50046000  0.68916000  0.28324000  1
  H  H5  1  0.50044000  0.74990000  0.30204000  1
  H  H6  1  0.50006000  0.75010000  0.60716000  1
  H  H7  1  0.49968000  0.11986000  0.62458000  1
  H  H8  1  0.49967000  0.18916000  0.62591000  1
  H  H9  1  0.49951000  0.31024000  0.71584000  1
  H  H10  1  0.50021000  0.31085000  0.28322000  1
  H  H11  1  0.50018000  0.25010000  0.30202000  1
  H  H12  1  0.49969000  0.24990000  0.60714000  1
  H  H13  1  0.10986000  0.49988000  0.70308000  1
  H  H14  1  0.10985000  0.50010000  0.29691000  1
  H  H15  1  0.89016000  0.49991000  0.70308000  1
  H  H16  1  0.11054000  0.00071000  0.20781000  1
  H  H17  1  0.10951000  0.00051000  0.61398000  1
  H  H18  1  0.89084000  0.00048000  0.20717000  1
  H  H19  1  0.56198000  0.91138000  0.14215000  1
  H  H20  1  0.43943000  0.87625000  0.07357000  1
  H  H21  1  0.43933000  0.77912000  0.14087000  1
  H  H22  1  0.56205000  0.81439000  0.07354000  1
  H  H23  1  0.43919000  0.58862000  0.23300000  1
  H  H24  1  0.56192000  0.62373000  0.16465000  1
  H  H25  1  0.56116000  0.58868000  0.76719000  1
  H  H26  1  0.43844000  0.62369000  0.83543000  1
  H  H27  1  0.43915000  0.08862000  0.14191000  1
  H  H28  1  0.56189000  0.12376000  0.07374000  1
  H  H29  1  0.56177000  0.22089000  0.14105000  1
  H  H30  1  0.43925000  0.18562000  0.07331000  1
  H  H31  1  0.56159000  0.41139000  0.23319000  1
  H  H32  1  0.43908000  0.37628000  0.16443000  1
  H  H33  1  0.43810000  0.41132000  0.76698000  1
  H  H34  1  0.56063000  0.37631000  0.83562000  1
  H  H35  1  0.00470000  0.52292000  0.16293000  1
  H  H36  1  0.00402000  0.97759000  0.74766000  1
  C  C1  1  0.73439000  0.50003000  0.50001000  1
  C  C2  1  0.26562000  0.49997000  0.49999000  1
  C  C3  1  0.49984000  0.42834000  0.49999000  1
  C  C4  1  0.50017000  0.57167000  0.50000000  1
  C  C5  1  0.73456000  0.00020000  0.40980000  1
  C  C6  1  0.26579000  0.99980000  0.40848000  1
  C  C7  1  0.50003000  0.07167000  0.40912000  1
  C  C8  1  0.50033000  0.92834000  0.40915000  1
  C  C9  1  0.50032000  0.88566000  0.40916000  1
  C  C10  1  0.50017000  0.86506000  0.53008000  1
  C  C11  1  0.50016000  0.82503000  0.53024000  1
  C  C12  1  0.50031000  0.80443000  0.40893000  1
  C  C13  1  0.50047000  0.82510000  0.28832000  1
  C  C14  1  0.50047000  0.86509000  0.28824000  1
  C  C15  1  0.50032000  0.76182000  0.40144000  1
  C  C16  1  0.50018000  0.73818000  0.50777000  1
  C  C17  1  0.50003000  0.67490000  0.62087000  1
  C  C18  1  0.50019000  0.69557000  0.50026000  1
  C  C19  1  0.50034000  0.67498000  0.37894000  1
  C  C20  1  0.50033000  0.63495000  0.37910000  1
  C  C21  1  0.50018000  0.61434000  0.50001000  1
  C  C22  1  0.50003000  0.63491000  0.62094000  1
  C  C23  1  0.50003000  0.11434000  0.40913000  1
  C  C24  1  0.49983000  0.13495000  0.53004000  1
  C  C25  1  0.49982000  0.17498000  0.53022000  1
  C  C26  1  0.50002000  0.19557000  0.40890000  1
  C  C27  1  0.50022000  0.17491000  0.28829000  1
  C  C28  1  0.50022000  0.13492000  0.28821000  1
  C  C29  1  0.50003000  0.23819000  0.40142000  1
  C  C30  1  0.49985000  0.26182000  0.50774000  1
  C  C31  1  0.49966000  0.32510000  0.62085000  1
  C  C32  1  0.49986000  0.30443000  0.50024000  1
  C  C33  1  0.50005000  0.32503000  0.37892000  1
  C  C34  1  0.50005000  0.36505000  0.37909000  1
  C  C35  1  0.49985000  0.38566000  0.50000000  1
  C  C36  1  0.49966000  0.36509000  0.62092000  1
  C  C37  1  0.86911000  0.50002000  0.50000000  1
  C  C38  1  0.13091000  0.49999000  0.49999000  1
  C  C39  1  0.93501000  0.50007000  0.38006000  1
  C  C40  1  0.06501000  0.49993000  0.61993000  1
  C  C41  1  0.06500000  0.50006000  0.38005000  1
  C  C42  1  0.93501000  0.49995000  0.61994000  1
  C  C43  1  0.86928000  0.00035000  0.41019000  1
  C  C44  1  0.13107000  0.00063000  0.41095000  1
  C  C45  1  0.93488000  0.00036000  0.53032000  1
  C  C46  1  0.06548000  0.00062000  0.29082000  1
  C  C47  1  0.06487000  0.00050000  0.53070000  1
  C  C48  1  0.93548000  0.00048000  0.29044000  1
  C  C49  1  0.86407000  0.50015000  0.24858000  1
  C  C50  1  0.86361000  0.00022000  0.66160000  1
  N  N1  1  0.50064000  0.88610000  0.15634000  1
  N  N2  1  0.50063000  0.80437000  0.15588000  1
  N  N3  1  0.50050000  0.61391000  0.24727000  1
  N  N4  1  0.49986000  0.61390000  0.75283000  1
  N  N5  1  0.50044000  0.11391000  0.15631000  1
  N  N6  1  0.50043000  0.19563000  0.15586000  1
  N  N7  1  0.50026000  0.38610000  0.24726000  1
  N  N8  1  0.49944000  0.38610000  0.75282000  1
  O  O1  1  0.66250000  0.49997000  0.61869000  1
  O  O2  1  0.33718000  0.49992000  0.61867000  1
  O  O3  1  0.49965000  0.45021000  0.61868000  1
  O  O4  1  0.50002000  0.54968000  0.61868000  1
  O  O5  1  0.50032000  0.54979000  0.38132000  1
  O  O6  1  0.50003000  0.45033000  0.38132000  1
  O  O7  1  0.33738000  0.49998000  0.38131000  1
  O  O8  1  0.66284000  0.50010000  0.38133000  1
  O  O9  1  0.66297000  0.00019000  0.29091000  1
  O  O10  1  0.33764000  0.99993000  0.29000000  1
  O  O11  1  0.50013000  0.04979000  0.29044000  1
  O  O12  1  0.50048000  0.95032000  0.29047000  1
  O  O13  1  0.50018000  0.95021000  0.52783000  1
  O  O14  1  0.49992000  0.04968000  0.52780000  1
  O  O15  1  0.33725000  0.99987000  0.52735000  1
  O  O16  1  0.66271000  0.00007000  0.52827000  1
  O  O17  1  0.91401000  0.51689000  0.14209000  1
  O  O18  1  0.75939000  0.48559000  0.24212000  1
  O  O19  1  0.91328000  0.98352000  0.76824000  1
  O  O20  1  0.75891000  0.01467000  0.66775000  1
