# generated using pymatgen
data_Li2CuH3C11BrNO6
_symmetry_space_group_name_H-M   'P 1'
_cell_length_a   10.70030000
_cell_length_b   34.49760000
_cell_length_c   10.00000000
_cell_angle_alpha   90.00000000
_cell_angle_beta   90.00000000
_cell_angle_gamma   90.09370000
_symmetry_Int_Tables_number   1
_chemical_formula_structural   Li2CuH3C11BrNO6
_chemical_formula_sum   'Li8 Cu4 H12 C44 Br4 N4 O24'
_cell_volume   3691.34175665
_cell_formula_units_Z   4
loop_
 _symmetry_equiv_pos_site_id
 _symmetry_equiv_pos_as_xyz
  1  'x, y, z'
loop_
 _atom_site_type_symbol
 _atom_site_label
 _atom_site_symmetry_multiplicity
 _atom_site_fract_x
 _atom_site_fract_y
 _atom_site_fract_z
 _atom_site_occupancy
  Li  Li1  1  0.50083000  0.86635000  0.00486000  1
  Li  Li2  1  0.50066000  0.75558000  0.12942000  1
  Li  Li3  1  0.49968000  0.63365000  0.89741000  1
  Li  Li4  1  0.50068000  0.63375000  0.10263000  1
  Li  Li5  1  0.50068000  0.13365000  0.00486000  1
  Li  Li6  1  0.50046000  0.24442000  0.12942000  1
  Li  Li7  1  0.49921000  0.36635000  0.89741000  1
  Li  Li8  1  0.50049000  0.36626000  0.10263000  1
  Cu  Cu1  1  0.50000000  0.50000000  0.62726000  1
  Cu  Cu2  1  0.50001000  0.50000000  0.37274000  1
  Cu  Cu3  1  0.50050000  0.00000000  0.27502000  1
  Cu  Cu4  1  0.49987000  0.00000000  0.52953000  1
  H  H1  1  0.50006000  0.87842000  0.61799000  1
  H  H2  1  0.50006000  0.80698000  0.61703000  1
  H  H3  1  0.49992000  0.69303000  0.71497000  1
  H  H4  1  0.50046000  0.69303000  0.28525000  1
  H  H5  1  0.49969000  0.12158000  0.61799000  1
  H  H6  1  0.49968000  0.19303000  0.61703000  1
  H  H7  1  0.49951000  0.30698000  0.71497000  1
  H  H8  1  0.50021000  0.30698000  0.28525000  1
  H  H9  1  0.10985000  0.50010000  0.29691000  1
  H  H10  1  0.89017000  0.49990000  0.70308000  1
  H  H11  1  0.10952000  0.00051000  0.60711000  1
  H  H12  1  0.89085000  0.00049000  0.20031000  1
  C  C1  1  0.73439000  0.50003000  0.50001000  1
  C  C2  1  0.26562000  0.49997000  0.49999000  1
  C  C3  1  0.49985000  0.42730000  0.50000000  1
  C  C4  1  0.50018000  0.57270000  0.50000000  1
  C  C5  1  0.73457000  0.00021000  0.40294000  1
  C  C6  1  0.26580000  0.99980000  0.40162000  1
  C  C7  1  0.50004000  0.07270000  0.40228000  1
  C  C8  1  0.50034000  0.92730000  0.40228000  1
  C  C9  1  0.50033000  0.88404000  0.40227000  1
  C  C10  1  0.50018000  0.86313000  0.52342000  1
  C  C11  1  0.50018000  0.82250000  0.52310000  1
  C  C12  1  0.50033000  0.80194000  0.40182000  1
  C  C13  1  0.50048000  0.82255000  0.28122000  1
  C  C14  1  0.50048000  0.86317000  0.28108000  1
  C  C15  1  0.50004000  0.67745000  0.62106000  1
  C  C16  1  0.50019000  0.69806000  0.50046000  1
  C  C17  1  0.50034000  0.67751000  0.37917000  1
  C  C18  1  0.50033000  0.63687000  0.37885000  1
  C  C19  1  0.50018000  0.61597000  0.50000000  1
  C  C20  1  0.50003000  0.63684000  0.62120000  1
  C  C21  1  0.50004000  0.11597000  0.40227000  1
  C  C22  1  0.49984000  0.13687000  0.52342000  1
  C  C23  1  0.49984000  0.17751000  0.52310000  1
  C  C24  1  0.50003000  0.19806000  0.40182000  1
  C  C25  1  0.50023000  0.17745000  0.28122000  1
  C  C26  1  0.50023000  0.13684000  0.28108000  1
  C  C27  1  0.49966000  0.32255000  0.62105000  1
  C  C28  1  0.49986000  0.30194000  0.50046000  1
  C  C29  1  0.50005000  0.32250000  0.37917000  1
  C  C30  1  0.50005000  0.36313000  0.37885000  1
  C  C31  1  0.49985000  0.38404000  0.50000000  1
  C  C32  1  0.49966000  0.36317000  0.62120000  1
  C  C33  1  0.86911000  0.50002000  0.50000000  1
  C  C34  1  0.13091000  0.49999000  0.49999000  1
  C  C35  1  0.93501000  0.50007000  0.38006000  1
  C  C36  1  0.06501000  0.49993000  0.61993000  1
  C  C37  1  0.06500000  0.50006000  0.38005000  1
  C  C38  1  0.93502000  0.49994000  0.61994000  1
  C  C39  1  0.86929000  0.00036000  0.40333000  1
  C  C40  1  0.13108000  0.00064000  0.40409000  1
  C  C41  1  0.93488000  0.00036000  0.52346000  1
  C  C42  1  0.06549000  0.00064000  0.28396000  1
  C  C43  1  0.06488000  0.00050000  0.52384000  1
  C  C44  1  0.93549000  0.00049000  0.28358000  1
  Br  Br1  1  0.83796000  0.50018000  0.20017000  1
  Br  Br2  1  0.16206000  0.49982000  0.79983000  1
  Br  Br3  1  0.83738000  0.00016000  0.70308000  1
  Br  Br4  1  0.16299000  0.00084000  0.10435000  1
  N  N1  1  0.50032000  0.76032000  0.39824000  1
  N  N2  1  0.50019000  0.73968000  0.50403000  1
  N  N3  1  0.50003000  0.23968000  0.39824000  1
  N  N4  1  0.49986000  0.26032000  0.50403000  1
  O  O1  1  0.66250000  0.49997000  0.61869000  1
  O  O2  1  0.33718000  0.49992000  0.61867000  1
  O  O3  1  0.49965000  0.44949000  0.61868000  1
  O  O4  1  0.50002000  0.55040000  0.61868000  1
  O  O5  1  0.50032000  0.55051000  0.38132000  1
  O  O6  1  0.50004000  0.44961000  0.38132000  1
  O  O7  1  0.33738000  0.49998000  0.38131000  1
  O  O8  1  0.66284000  0.50010000  0.38133000  1
  O  O9  1  0.66297000  0.00019000  0.28405000  1
  O  O10  1  0.33766000  0.99993000  0.28314000  1
  O  O11  1  0.50014000  0.05051000  0.28359000  1
  O  O12  1  0.50049000  0.94961000  0.28359000  1
  O  O13  1  0.50019000  0.94949000  0.52095000  1
  O  O14  1  0.49993000  0.05040000  0.52096000  1
  O  O15  1  0.33727000  0.99987000  0.52049000  1
  O  O16  1  0.66272000  0.00006000  0.52141000  1
  O  O17  1  0.50063000  0.88152000  0.16777000  1
  O  O18  1  0.50062000  0.80387000  0.16856000  1
  O  O19  1  0.49989000  0.61848000  0.73451000  1
  O  O20  1  0.50047000  0.61854000  0.26550000  1
  O  O21  1  0.50042000  0.11849000  0.16777000  1
  O  O22  1  0.50041000  0.19614000  0.16856000  1
  O  O23  1  0.49947000  0.38152000  0.73451000  1
  O  O24  1  0.50023000  0.38146000  0.26549000  1
