# generated using pymatgen
data_Cu2H23C29N3O10
_symmetry_space_group_name_H-M   'P 1'
_cell_length_a   28.07250000
_cell_length_b   10.70030000
_cell_length_c   9.12930000
_cell_angle_alpha   89.99920000
_cell_angle_beta   90.00100000
_cell_angle_gamma   89.88870000
_symmetry_Int_Tables_number   1
_chemical_formula_structural   Cu2H23C29N3O10
_chemical_formula_sum   'Cu4 H46 C58 N6 O20'
_cell_volume   2742.29204443
_cell_formula_units_Z   2
loop_
 _symmetry_equiv_pos_site_id
 _symmetry_equiv_pos_as_xyz
  1  'x, y, z'
loop_
 _atom_site_type_symbol
 _atom_site_label
 _atom_site_symmetry_multiplicity
 _atom_site_fract_x
 _atom_site_fract_y
 _atom_site_fract_z
 _atom_site_occupancy
  Cu  Cu1  1  0.50000000  0.49999000  0.36060000  1
  Cu  Cu2  1  0.50000000  0.49999000  0.63939000  1
  Cu  Cu3  1  0.11884000  0.49934000  0.63942000  1
  Cu  Cu4  1  0.11883000  0.50012000  0.36063000  1
  H  H1  1  0.55119000  0.36562000  0.12876000  1
  H  H2  1  0.44881000  0.63437000  0.87124000  1
  H  H3  1  0.50014000  0.10984000  0.72245000  1
  H  H4  1  0.49987000  0.89015000  0.27755000  1
  H  H5  1  0.97019000  0.49928000  0.73149000  1
  H  H6  1  0.88502000  0.49930000  0.73172000  1
  H  H7  1  0.97019000  0.49988000  0.26860000  1
  H  H8  1  0.64864000  0.49934000  0.73147000  1
  H  H9  1  0.64865000  0.50008000  0.26858000  1
  H  H10  1  0.73382000  0.50004000  0.26838000  1
  H  H11  1  0.26755000  0.50015000  0.27755000  1
  H  H12  1  0.35129000  0.49997000  0.72245000  1
  H  H13  1  0.06781000  0.36714000  0.87078000  1
  H  H14  1  0.16983000  0.63508000  0.12928000  1
  H  H15  1  0.11786000  0.11019000  0.27987000  1
  H  H16  1  0.11845000  0.88927000  0.72395000  1
  H  H17  1  0.59655000  0.35023000  0.86405000  1
  H  H18  1  0.55966000  0.34314000  0.73542000  1
  H  H19  1  0.55713000  0.24664000  0.86438000  1
  H  H20  1  0.44297000  0.75336000  0.13595000  1
  H  H21  1  0.44025000  0.65658000  0.26458000  1
  H  H22  1  0.40347000  0.65001000  0.13561000  1
  H  H23  1  0.52813000  0.88383000  0.83355000  1
  H  H24  1  0.50004000  0.77425000  0.75945000  1
  H  H25  1  0.47228000  0.88444000  0.83403000  1
  H  H26  1  0.52779000  0.11583000  0.16616000  1
  H  H27  1  0.49982000  0.22574000  0.24056000  1
  H  H28  1  0.47195000  0.11588000  0.16625000  1
  H  H29  1  0.35370000  0.42703000  0.16623000  1
  H  H30  1  0.39546000  0.50058000  0.24055000  1
  H  H31  1  0.35345000  0.57354000  0.16618000  1
  H  H32  1  0.26528000  0.42639000  0.83363000  1
  H  H33  1  0.22338000  0.49991000  0.75945000  1
  H  H34  1  0.26525000  0.57290000  0.83396000  1
  H  H35  1  0.02248000  0.35105000  0.13544000  1
  H  H36  1  0.05939000  0.34358000  0.26404000  1
  H  H37  1  0.06204000  0.24744000  0.13471000  1
  H  H38  1  0.17550000  0.75481000  0.86502000  1
  H  H39  1  0.17835000  0.65838000  0.73603000  1
  H  H40  1  0.21515000  0.65143000  0.86495000  1
  H  H41  1  0.09018000  0.88451000  0.16793000  1
  H  H42  1  0.11841000  0.77470000  0.24162000  1
  H  H43  1  0.14602000  0.88508000  0.16744000  1
  H  H44  1  0.09022000  0.11466000  0.83620000  1
  H  H45  1  0.11804000  0.22475000  0.76221000  1
  H  H46  1  0.14606000  0.11466000  0.83608000  1
  C  C1  1  0.58934000  0.49976000  0.50001000  1
  C  C2  1  0.41066000  0.50023000  0.49999000  1
  C  C3  1  0.49997000  0.73438000  0.49999000  1
  C  C4  1  0.50004000  0.26561000  0.50000000  1
  C  C5  1  0.02950000  0.49957000  0.50005000  1
  C  C6  1  0.20818000  0.49989000  0.50000000  1
  C  C7  1  0.11855000  0.73411000  0.50091000  1
  C  C8  1  0.11912000  0.26534000  0.49914000  1
  C  C9  1  0.53023000  0.42063000  0.92381000  1
  C  C10  1  0.46977000  0.57935000  0.07618000  1
  C  C11  1  0.53023000  0.42064000  0.07619000  1
  C  C12  1  0.46977000  0.57935000  0.92381000  1
  C  C13  1  0.49999000  0.86910000  0.50000000  1
  C  C14  1  0.50002000  0.13089000  0.50000000  1
  C  C15  1  0.50007000  0.93499000  0.63138000  1
  C  C16  1  0.49994000  0.06499000  0.36862000  1
  C  C17  1  0.50008000  0.06499000  0.63138000  1
  C  C18  1  0.49992000  0.93500000  0.36862000  1
  C  C19  1  0.97902000  0.49958000  0.50005000  1
  C  C20  1  0.95279000  0.49941000  0.63296000  1
  C  C21  1  0.90262000  0.49942000  0.63336000  1
  C  C22  1  0.87720000  0.49961000  0.50005000  1
  C  C23  1  0.90262000  0.49977000  0.36675000  1
  C  C24  1  0.95278000  0.49976000  0.36714000  1
  C  C25  1  0.83072000  0.49963000  0.50006000  1
  C  C26  1  0.78812000  0.49964000  0.50006000  1
  C  C27  1  0.74164000  0.49966000  0.50005000  1
  C  C28  1  0.71621000  0.49946000  0.63334000  1
  C  C29  1  0.66605000  0.49949000  0.63294000  1
  C  C30  1  0.63982000  0.49972000  0.50002000  1
  C  C31  1  0.66606000  0.49992000  0.36711000  1
  C  C32  1  0.71622000  0.49989000  0.36673000  1
  C  C33  1  0.35931000  0.50014000  0.50000000  1
  C  C34  1  0.25953000  0.49997000  0.50000000  1
  C  C35  1  0.33419000  0.50020000  0.36862000  1
  C  C36  1  0.28464000  0.49992000  0.63138000  1
  C  C37  1  0.28464000  0.50011000  0.36862000  1
  C  C38  1  0.33420000  0.50000000  0.63138000  1
  C  C39  1  0.08870000  0.42157000  0.07592000  1
  C  C40  1  0.14894000  0.58066000  0.92414000  1
  C  C41  1  0.08869000  0.42199000  0.92355000  1
  C  C42  1  0.14894000  0.58024000  0.07651000  1
  C  C43  1  0.11835000  0.86883000  0.50142000  1
  C  C44  1  0.11796000  0.13062000  0.50240000  1
  C  C45  1  0.11818000  0.93509000  0.37029000  1
  C  C46  1  0.11814000  0.06436000  0.63354000  1
  C  C47  1  0.11798000  0.06508000  0.37078000  1
  C  C48  1  0.11833000  0.93437000  0.63305000  1
  C  C49  1  0.56413000  0.33167000  0.83881000  1
  C  C50  1  0.43588000  0.66832000  0.16119000  1
  C  C51  1  0.50014000  0.86246000  0.77865000  1
  C  C52  1  0.49987000  0.13753000  0.22135000  1
  C  C53  1  0.36184000  0.50035000  0.22134000  1
  C  C54  1  0.25700000  0.49976000  0.77866000  1
  C  C55  1  0.05493000  0.33240000  0.16061000  1
  C  C56  1  0.18271000  0.66983000  0.83946000  1
  C  C57  1  0.11820000  0.86296000  0.22274000  1
  C  C58  1  0.11811000  0.13649000  0.78108000  1
  N  N1  1  0.50000000  0.49999000  0.84657000  1
  N  N2  1  0.50000000  0.49999000  0.15342000  1
  N  N3  1  0.11882000  0.50069000  0.15346000  1
  N  N4  1  0.11881000  0.50154000  0.84660000  1
  N  N5  1  0.87666000  0.49997000  0.22167000  1
  N  N6  1  0.74217000  0.49921000  0.77843000  1
  O  O1  1  0.56194000  0.49998000  0.37000000  1
  O  O2  1  0.43794000  0.50037000  0.37000000  1
  O  O3  1  0.49989000  0.66284000  0.37000000  1
  O  O4  1  0.49999000  0.33752000  0.37000000  1
  O  O5  1  0.50010000  0.33715000  0.63000000  1
  O  O6  1  0.50003000  0.66247000  0.62999000  1
  O  O7  1  0.43801000  0.50018000  0.62999000  1
  O  O8  1  0.56207000  0.49957000  0.63000000  1
  O  O9  1  0.05690000  0.49941000  0.63005000  1
  O  O10  1  0.18090000  0.49969000  0.63001000  1
  O  O11  1  0.11873000  0.66221000  0.63064000  1
  O  O12  1  0.11907000  0.33689000  0.62941000  1
  O  O13  1  0.11895000  0.33724000  0.36941000  1
  O  O14  1  0.11858000  0.66257000  0.37065000  1
  O  O15  1  0.18082000  0.50022000  0.37002000  1
  O  O16  1  0.05677000  0.49972000  0.37005000  1
  O  O17  1  0.83469000  0.58173000  0.20046000  1
  O  O18  1  0.89328000  0.41842000  0.10123000  1
  O  O19  1  0.78403000  0.58086000  0.79997000  1
  O  O20  1  0.72566000  0.41731000  0.89853000  1
