# generated using pymatgen
data_ZnH4C11SN3O11
_symmetry_space_group_name_H-M   'P 1'
_cell_length_a   10.90060000
_cell_length_b   36.52860000
_cell_length_c   10.00000000
_cell_angle_alpha   90.00000000
_cell_angle_beta   90.00000000
_cell_angle_gamma   107.18100000
_symmetry_Int_Tables_number   1
_chemical_formula_structural   ZnH4C11SN3O11
_chemical_formula_sum   'Zn4 H16 C44 S4 N12 O44'
_cell_volume   3804.15257010
_cell_formula_units_Z   4
loop_
 _symmetry_equiv_pos_site_id
 _symmetry_equiv_pos_as_xyz
  1  'x, y, z'
loop_
 _atom_site_type_symbol
 _atom_site_label
 _atom_site_symmetry_multiplicity
 _atom_site_fract_x
 _atom_site_fract_y
 _atom_site_fract_z
 _atom_site_occupancy
  Zn  Zn1  1  0.50003000  0.50011000  0.66577000  1
  Zn  Zn2  1  0.50000000  0.49989000  0.33423000  1
  Zn  Zn3  1  0.99628000  0.99991000  0.23657000  1
  Zn  Zn4  1  0.99672000  0.00013000  0.56810000  1
  H  H1  1  0.87458000  0.87693000  0.61823000  1
  H  H2  1  0.80445000  0.80631000  0.61715000  1
  H  H3  1  0.80449000  0.80636000  0.18743000  1
  H  H4  1  0.69260000  0.69366000  0.71491000  1
  H  H5  1  0.69264000  0.69371000  0.28519000  1
  H  H6  1  0.62251000  0.62309000  0.28411000  1
  H  H7  1  0.11860000  0.12305000  0.61785000  1
  H  H8  1  0.19018000  0.19367000  0.61698000  1
  H  H9  1  0.19094000  0.19372000  0.18726000  1
  H  H10  1  0.30417000  0.30630000  0.71507000  1
  H  H11  1  0.30493000  0.30634000  0.28535000  1
  H  H12  1  0.37651000  0.37697000  0.28448000  1
  H  H13  1  0.04678000  0.92905000  0.05584000  1
  H  H14  1  0.69120000  0.57090000  0.84648000  1
  H  H15  1  0.94661000  0.07131000  0.05508000  1
  H  H16  1  0.30810000  0.42926000  0.84678000  1
  C  C1  1  0.26084000  0.50010000  0.49992000  1
  C  C2  1  0.57451000  0.57474000  0.49974000  1
  C  C3  1  0.73916000  0.49988000  0.50008000  1
  C  C4  1  0.42510000  0.42526000  0.50026000  1
  C  C5  1  0.75728000  0.00007000  0.40244000  1
  C  C6  1  0.92257000  0.92528000  0.40259000  1
  C  C7  1  0.23575000  0.00000000  0.40222000  1
  C  C8  1  0.07001000  0.07476000  0.40207000  1
  C  C9  1  0.88011000  0.88251000  0.40252000  1
  C  C10  1  0.85958000  0.86183000  0.52364000  1
  C  C11  1  0.81969000  0.82166000  0.52325000  1
  C  C12  1  0.79953000  0.80136000  0.40193000  1
  C  C13  1  0.81977000  0.82175000  0.28137000  1
  C  C14  1  0.85963000  0.86190000  0.28129000  1
  C  C15  1  0.67732000  0.67827000  0.62097000  1
  C  C16  1  0.69756000  0.69866000  0.50041000  1
  C  C17  1  0.67739000  0.67836000  0.37908000  1
  C  C18  1  0.63751000  0.63819000  0.37870000  1
  C  C19  1  0.61698000  0.61751000  0.49981000  1
  C  C20  1  0.63745000  0.63812000  0.62104000  1
  C  C21  1  0.11335000  0.11752000  0.40213000  1
  C  C22  1  0.13409000  0.13818000  0.52330000  1
  C  C23  1  0.17479000  0.17834000  0.52304000  1
  C  C24  1  0.19560000  0.19867000  0.40178000  1
  C  C25  1  0.17517000  0.17831000  0.28115000  1
  C  C26  1  0.13448000  0.13817000  0.28096000  1
  C  C27  1  0.31994000  0.32171000  0.62118000  1
  C  C28  1  0.29951000  0.30135000  0.50056000  1
  C  C29  1  0.32031000  0.32168000  0.37930000  1
  C  C30  1  0.36102000  0.36184000  0.37903000  1
  C  C31  1  0.38175000  0.38250000  0.50021000  1
  C  C32  1  0.36063000  0.36185000  0.62138000  1
  C  C33  1  0.87145000  0.49993000  0.50004000  1
  C  C34  1  0.12855000  0.50004000  0.49996000  1
  C  C35  1  0.93604000  0.49986000  0.38008000  1
  C  C36  1  0.06396000  0.50011000  0.61992000  1
  C  C37  1  0.06370000  0.49991000  0.38004000  1
  C  C38  1  0.93630000  0.50006000  0.61996000  1
  C  C39  1  0.36786000  0.99987000  0.40225000  1
  C  C40  1  0.62459000  0.99961000  0.40230000  1
  C  C41  1  0.43256000  0.99990000  0.52220000  1
  C  C42  1  0.55988000  0.99957000  0.28235000  1
  C  C43  1  0.56004000  0.99977000  0.52222000  1
  C  C44  1  0.43240000  0.99970000  0.28232000  1
  S  S1  1  0.88386000  0.88631000  0.12900000  1
  S  S2  1  0.61322000  0.61371000  0.77334000  1
  S  S3  1  0.11003000  0.11379000  0.12859000  1
  S  S4  1  0.38508000  0.38623000  0.77374000  1
  N  N1  1  0.75867000  0.76022000  0.39829000  1
  N  N2  1  0.73841000  0.73980000  0.50405000  1
  N  N3  1  0.23731000  0.23982000  0.39826000  1
  N  N4  1  0.25780000  0.26020000  0.50408000  1
  N  N5  1  0.86653000  0.49972000  0.24918000  1
  N  N6  1  0.13347000  0.50025000  0.75083000  1
  N  N7  1  0.13292000  0.49983000  0.24909000  1
  N  N8  1  0.86708000  0.50014000  0.75091000  1
  N  N9  1  0.36339000  0.00009000  0.65311000  1
  N  N10  1  0.62905000  0.99939000  0.15143000  1
  N  N11  1  0.62939000  0.99982000  0.65317000  1
  N  N12  1  0.36305000  0.99966000  0.15138000  1
  O  O1  1  0.32334000  0.50034000  0.63580000  1
  O  O2  1  0.32314000  0.49996000  0.36399000  1
  O  O3  1  0.55506000  0.55516000  0.36380000  1
  O  O4  1  0.55528000  0.55537000  0.63562000  1
  O  O5  1  0.67677000  0.49973000  0.36420000  1
  O  O6  1  0.67682000  0.49996000  0.63601000  1
  O  O7  1  0.44472000  0.44484000  0.63620000  1
  O  O8  1  0.44496000  0.44464000  0.36438000  1
  O  O9  1  0.81924000  0.99979000  0.26656000  1
  O  O10  1  0.81982000  0.00016000  0.53836000  1
  O  O11  1  0.94202000  0.94486000  0.53853000  1
  O  O12  1  0.94180000  0.94465000  0.26672000  1
  O  O13  1  0.17369000  0.00018000  0.53811000  1
  O  O14  1  0.17326000  0.99995000  0.26631000  1
  O  O15  1  0.05073000  0.05518000  0.26614000  1
  O  O16  1  0.05141000  0.05538000  0.53795000  1
  O  O17  1  0.04149000  0.90376000  0.09235000  1
  O  O18  1  0.81701000  0.86014000  0.00653000  1
  O  O19  1  0.83252000  0.92279000  0.13214000  1
  O  O20  1  0.73612000  0.59618000  0.80997000  1
  O  O21  1  0.59837000  0.63990000  0.89581000  1
  O  O22  1  0.48948000  0.57728000  0.77020000  1
  O  O23  1  0.95239000  0.09664000  0.09163000  1
  O  O24  1  0.17756000  0.13990000  0.00628000  1
  O  O25  1  0.16043000  0.07713000  0.13180000  1
  O  O26  1  0.26276000  0.40403000  0.81015000  1
  O  O27  1  0.39909000  0.35993000  0.89622000  1
  O  O28  1  0.50940000  0.42248000  0.77088000  1
  O  O29  1  0.78289000  0.52471000  0.23187000  1
  O  O30  1  0.88232000  0.47459000  0.13868000  1
  O  O31  1  0.26650000  0.52537000  0.76761000  1
  O  O32  1  0.06829000  0.47528000  0.86184000  1
  O  O33  1  0.21652000  0.47481000  0.23224000  1
  O  O34  1  0.11689000  0.52477000  0.13811000  1
  O  O35  1  0.73409000  0.47506000  0.76828000  1
  O  O36  1  0.93250000  0.52530000  0.86138000  1
  O  O37  1  0.23018000  0.97516000  0.67043000  1
  O  O38  1  0.42907000  0.02519000  0.76361000  1
  O  O39  1  0.71214000  0.97421000  0.13463000  1
  O  O40  1  0.61350000  0.02439000  0.04042000  1
  O  O41  1  0.76263000  0.02477000  0.67001000  1
  O  O42  1  0.56386000  0.97490000  0.76416000  1
  O  O43  1  0.27994000  0.02481000  0.13402000  1
  O  O44  1  0.37846000  0.97447000  0.04090000  1
