data_DB1-Zn2O8N2-irmof14_A-irmof8_A_No362_repeat
_audit_creation_date              2024-02-23
_audit_creation_method            'Materials Studio'
_symmetry_space_group_name_H-M    'P1'
_symmetry_Int_Tables_number       1
_symmetry_cell_setting            triclinic
loop_
_symmetry_equiv_pos_as_xyz
  x,y,z
_cell_length_a                    13.1908
_cell_length_b                    28.2879
_cell_length_c                    14.4219
_cell_angle_alpha                 90.0417
_cell_angle_beta                  89.8742
_cell_angle_gamma                 89.7896
loop_
_atom_site_label
_atom_site_type_symbol
_atom_site_fract_x
_atom_site_fract_y
_atom_site_fract_z
_atom_site_U_iso_or_equiv
_atom_site_adp_type
_atom_site_occupancy
O1     O     0.50094   0.43182   0.59415   0.00000  Uiso   1.00
O2     O     0.50043   0.43183   0.40568   0.00000  Uiso   1.00
C1     C     0.50063   0.40781   0.49993   0.00000  Uiso   1.00
Zn1    Zn    0.50000   0.50001   0.61494   0.00000  Uiso   1.00
O3     O     0.64617   0.50003   0.40558   0.00000  Uiso   1.00
O4     O     0.64624   0.50009   0.59406   0.00000  Uiso   1.00
C2     C     0.69774   0.50004   0.49984   0.00000  Uiso   1.00
O5     O     0.49926   0.56819   0.40585   0.00000  Uiso   1.00
O6     O     0.49939   0.56818   0.59432   0.00000  Uiso   1.00
C3     C     0.49929   0.59221   0.50008   0.00000  Uiso   1.00
Zn2    Zn    0.50001   0.50000   0.38506   0.00000  Uiso   1.00
O7     O     0.35383   0.49989   0.59442   0.00000  Uiso   1.00
O8     O     0.35377   0.50000   0.40595   0.00000  Uiso   1.00
C4     C     0.30227   0.49981   0.50016   0.00000  Uiso   1.00
O9     O     0.50008   0.03448   0.40590   0.00000  Uiso   1.00
O10    O     0.49983   0.03448   0.59437   0.00000  Uiso   1.00
C5     C     0.49984   0.05850   0.50012   0.00000  Uiso   1.00
Zn3    Zn    0.49928   0.96630   0.38511   0.00000  Uiso   1.00
O11    O     0.64574   0.96586   0.59371   0.00000  Uiso   1.00
O12    O     0.64555   0.96579   0.40524   0.00000  Uiso   1.00
C6     C     0.69718   0.96569   0.49918   0.00000  Uiso   1.00
O13    O     0.49899   0.89812   0.59420   0.00000  Uiso   1.00
O14    O     0.49886   0.89813   0.40573   0.00000  Uiso   1.00
C7     C     0.49896   0.87410   0.49997   0.00000  Uiso   1.00
Zn4    Zn    0.49960   0.96630   0.61499   0.00000  Uiso   1.00
O15    O     0.35314   0.96684   0.40638   0.00000  Uiso   1.00
O16    O     0.35334   0.96673   0.59486   0.00000  Uiso   1.00
C8     C     0.30171   0.96707   0.50091   0.00000  Uiso   1.00
C9     C     0.56421   0.47028   0.80077   0.00000  Uiso   1.00
C10    C     0.56107   0.47174   0.89780   0.00000  Uiso   1.00
C11    C     0.62370   0.44274   0.95127   0.00000  Uiso   1.00
H1     H     0.60850   0.44978   0.77037   0.00000  Uiso   1.00
C12    C     0.43580   0.52973   0.80112   0.00000  Uiso   1.00
C13    C     0.43895   0.52828   0.89813   0.00000  Uiso   1.00
C14    C     0.37632   0.55727   0.95194   0.00000  Uiso   1.00
H2     H     0.39151   0.55024   0.77096   0.00000  Uiso   1.00
C15    C     0.43582   0.52973   0.19923   0.00000  Uiso   1.00
C16    C     0.43896   0.52827   0.10220   0.00000  Uiso   1.00
C17    C     0.37632   0.55727   0.04873   0.00000  Uiso   1.00
H3     H     0.39153   0.55023   0.22963   0.00000  Uiso   1.00
C18    C     0.56422   0.47028   0.19888   0.00000  Uiso   1.00
C19    C     0.56108   0.47174   0.10187   0.00000  Uiso   1.00
C20    C     0.62370   0.44274   0.04806   0.00000  Uiso   1.00
H4     H     0.60851   0.44977   0.22904   0.00000  Uiso   1.00
N1     N     0.50000   0.50001   0.75016   0.00000  Uiso   1.00
C21    C     0.50001   0.50000   0.95423   0.00000  Uiso   1.00
N2     N     0.50002   0.50000   0.24984   0.00000  Uiso   1.00
C22    C     0.50001   0.50001   0.04577   0.00000  Uiso   1.00
C23    C     0.49901   0.78982   0.43214   0.00000  Uiso   1.00
C24    C     0.49910   0.80756   0.59442   0.00000  Uiso   1.00
C25    C     0.49917   0.75959   0.61952   0.00000  Uiso   1.00
C26    C     0.49917   0.72573   0.54695   0.00000  Uiso   1.00
C27    C     0.49924   0.67649   0.56791   0.00000  Uiso   1.00
C28    C     0.49915   0.65875   0.40563   0.00000  Uiso   1.00
C29    C     0.49908   0.70672   0.38053   0.00000  Uiso   1.00
C30    C     0.49908   0.74058   0.45311   0.00000  Uiso   1.00
C31    C     0.49902   0.82177   0.49999   0.00000  Uiso   1.00
C32    C     0.49923   0.64454   0.50006   0.00000  Uiso   1.00
H5     H     0.49897   0.80085   0.35957   0.00000  Uiso   1.00
H6     H     0.49911   0.83435   0.64791   0.00000  Uiso   1.00
H7     H     0.49928   0.66546   0.64048   0.00000  Uiso   1.00
H8     H     0.49914   0.63196   0.35215   0.00000  Uiso   1.00
C33    C     0.50024   0.33460   0.41737   0.00000  Uiso   1.00
C34    C     0.50014   0.28513   0.42144   0.00000  Uiso   1.00
C35    C     0.49986   0.25775   0.34088   0.00000  Uiso   1.00
H9     H     0.50012   0.35000   0.36038   0.00000  Uiso   1.00
C36    C     0.50069   0.33468   0.58257   0.00000  Uiso   1.00
C37    C     0.50057   0.28521   0.57855   0.00000  Uiso   1.00
C38    C     0.50072   0.25791   0.65914   0.00000  Uiso   1.00
H10    H     0.50088   0.35015   0.63953   0.00000  Uiso   1.00
C39    C     0.50023   0.13171   0.58268   0.00000  Uiso   1.00
C40    C     0.50033   0.18117   0.57860   0.00000  Uiso   1.00
C41    C     0.50061   0.20856   0.65917   0.00000  Uiso   1.00
H11    H     0.50035   0.11630   0.63966   0.00000  Uiso   1.00
C42    C     0.49979   0.13163   0.41748   0.00000  Uiso   1.00
C43    C     0.49991   0.18110   0.42150   0.00000  Uiso   1.00
C44    C     0.49975   0.20840   0.34091   0.00000  Uiso   1.00
H12    H     0.49960   0.11616   0.36051   0.00000  Uiso   1.00
C45    C     0.50052   0.36053   0.49995   0.00000  Uiso   1.00
C46    C     0.50029   0.25649   0.50001   0.00000  Uiso   1.00
C47    C     0.49995   0.10578   0.50009   0.00000  Uiso   1.00
C48    C     0.50018   0.20982   0.50004   0.00000  Uiso   1.00
C49    C     0.12139   0.49990   0.56793   0.00000  Uiso   1.00
C50    C     0.15975   0.49983   0.40566   0.00000  Uiso   1.00
C51    C     0.05694   0.49986   0.38052   0.00000  Uiso   1.00
C52    C     0.98418   0.49992   0.45308   0.00000  Uiso   1.00
C53    C     0.87862   0.49995   0.43207   0.00000  Uiso   1.00
C54    C     0.84026   0.50002   0.59434   0.00000  Uiso   1.00
C55    C     0.94307   0.49999   0.61948   0.00000  Uiso   1.00
C56    C     0.01583   0.49994   0.54693   0.00000  Uiso   1.00
C57    C     0.19003   0.49985   0.50010   0.00000  Uiso   1.00
C58    C     0.80998   0.50000   0.49990   0.00000  Uiso   1.00
H13    H     0.14488   0.49993   0.64051   0.00000  Uiso   1.00
H14    H     0.21732   0.49980   0.35219   0.00000  Uiso   1.00
H15    H     0.85512   0.49992   0.35949   0.00000  Uiso   1.00
H16    H     0.78268   0.50006   0.64780   0.00000  Uiso   1.00
C59    C     0.56317   0.99584   0.19895   0.00000  Uiso   1.00
C60    C     0.55990   0.99440   0.10193   0.00000  Uiso   1.00
C61    C     0.62239   0.02321   0.04814   0.00000  Uiso   1.00
H17    H     0.60745   0.01622   0.22912   0.00000  Uiso   1.00
C62    C     0.43490   0.93676   0.19926   0.00000  Uiso   1.00
C63    C     0.43791   0.93821   0.10223   0.00000  Uiso   1.00
C64    C     0.37528   0.90940   0.04875   0.00000  Uiso   1.00
H18    H     0.39070   0.91639   0.22965   0.00000  Uiso   1.00
C65    C     0.43437   0.93677   0.80115   0.00000  Uiso   1.00
C66    C     0.43764   0.93821   0.89817   0.00000  Uiso   1.00
C67    C     0.37515   0.90940   0.95196   0.00000  Uiso   1.00
H19    H     0.39010   0.91639   0.77098   0.00000  Uiso   1.00
C68    C     0.56264   0.99585   0.80083   0.00000  Uiso   1.00
C69    C     0.55963   0.99440   0.89787   0.00000  Uiso   1.00
C70    C     0.62226   0.02321   0.95135   0.00000  Uiso   1.00
H20    H     0.60684   0.01622   0.77045   0.00000  Uiso   1.00
N3     N     0.49910   0.96630   0.24988   0.00000  Uiso   1.00
C71    C     0.49883   0.96630   0.04582   0.00000  Uiso   1.00
N4     N     0.49844   0.96631   0.75021   0.00000  Uiso   1.00
C72    C     0.49871   0.96630   0.95428   0.00000  Uiso   1.00
C73    C     0.12074   0.96460   0.42891   0.00000  Uiso   1.00
C74    C     0.15932   0.96456   0.59098   0.00000  Uiso   1.00
C75    C     0.05654   0.96483   0.61665   0.00000  Uiso   1.00
C76    C     0.98368   0.96499   0.54447   0.00000  Uiso   1.00
C77    C     0.87815   0.96526   0.56603   0.00000  Uiso   1.00
C78    C     0.83957   0.96530   0.40395   0.00000  Uiso   1.00
C79    C     0.94234   0.96503   0.37828   0.00000  Uiso   1.00
C80    C     0.01521   0.96488   0.45046   0.00000  Uiso   1.00
C81    C     0.18947   0.96445   0.49639   0.00000  Uiso   1.00
C82    C     0.80942   0.96541   0.49855   0.00000  Uiso   1.00
H21    H     0.14413   0.96451   0.35621   0.00000  Uiso   1.00
H22    H     0.21696   0.96443   0.64415   0.00000  Uiso   1.00
H23    H     0.85475   0.96536   0.63872   0.00000  Uiso   1.00
H24    H     0.78192   0.96543   0.35079   0.00000  Uiso   1.00
O17    O     0.69545   0.40952   0.09729   0.00000  Uiso   1.00
H25    H     0.68640   0.41371   0.17339   0.00000  Uiso   1.00
O18    O     0.69544   0.40952   0.90165   0.00000  Uiso   1.00
H26    H     0.68638   0.41372   0.82560   0.00000  Uiso   1.00
O19    O     0.30458   0.59049   0.09835   0.00000  Uiso   1.00
H27    H     0.31364   0.58629   0.17440   0.00000  Uiso   1.00
O20    O     0.30458   0.59049   0.90271   0.00000  Uiso   1.00
H28    H     0.31363   0.58630   0.82661   0.00000  Uiso   1.00
O21    O     0.49944   0.18315   0.24862   0.00000  Uiso   1.00
H29    H     0.49939   0.14437   0.26029   0.00000  Uiso   1.00
O22    O     0.49967   0.28290   0.24857   0.00000  Uiso   1.00
H30    H     0.49979   0.32169   0.26020   0.00000  Uiso   1.00
O23    O     0.50080   0.18341   0.75148   0.00000  Uiso   1.00
H31    H     0.50069   0.14462   0.73985   0.00000  Uiso   1.00
O24    O     0.50103   0.28315   0.75142   0.00000  Uiso   1.00
H32    H     0.50108   0.32193   0.73975   0.00000  Uiso   1.00
O25    O     0.69386   0.05622   0.90175   0.00000  Uiso   1.00
H33    H     0.68471   0.05206   0.82570   0.00000  Uiso   1.00
O26    O     0.69412   0.05622   0.09740   0.00000  Uiso   1.00
H34    H     0.68517   0.05205   0.17349   0.00000  Uiso   1.00
O27    O     0.30343   0.87639   0.90270   0.00000  Uiso   1.00
H35    H     0.31237   0.88056   0.82661   0.00000  Uiso   1.00
O28    O     0.30369   0.87639   0.09835   0.00000  Uiso   1.00
H36    H     0.31283   0.88055   0.17440   0.00000  Uiso   1.00
O29    O     0.49900   0.72018   0.29451   0.00000  Uiso   1.00
Li1    Li    0.49897   0.69000   0.19165   0.00000  Uiso   1.00
O30    O     0.49926   0.74613   0.70554   0.00000  Uiso   1.00
Li2    Li    0.49930   0.77632   0.80839   0.00000  Uiso   1.00
O31    O     0.97177   0.50001   0.70551   0.00000  Uiso   1.00
Li3    Li    0.90683   0.50007   0.80834   0.00000  Uiso   1.00
O32    O     0.02825   0.49985   0.29449   0.00000  Uiso   1.00
Li4    Li    0.09319   0.49979   0.19166   0.00000  Uiso   1.00
O33    O     0.97093   0.96493   0.29210   0.00000  Uiso   1.00
Li5    Li    0.90585   0.96506   0.18961   0.00000  Uiso   1.00
O34    O     0.02796   0.96493   0.70283   0.00000  Uiso   1.00
Li6    Li    0.09305   0.96480   0.80532   0.00000  Uiso   1.00
