# Generated by REPEAT Assigner based on pymatgen
data_DB1-Cu2O8N2-DPAC_A-irmof7_A_No358
_audit_creation_date              2022-05-24
_audit_creation_method            REPEAT_Assigner
_cell_length_a                    27.915400
_cell_length_b                    17.372200
_cell_length_c                    15.850000
_cell_angle_alpha                 89.994400
_cell_angle_beta                  89.993100
_cell_angle_gamma                 89.866000
_cell_volume                      7686.466690
_symmetry_space_group_name_H-M    P1
_symmetry_Int_Tables_number       1
loop_
    _symmetry_equiv_pos_site_id
    _symmetry_equiv_pos_as_xyz
    1  x,y,z
loop_
    _atom_site_type_symbol
    _atom_site_label
    _atom_site_fract_x
    _atom_site_fract_y
    _atom_site_fract_z
    _atom_type_partial_charge
    Cu  Cu1   0.500010  0.500000  0.419710  1.146773
    Cu  Cu2   0.500000  0.499990  0.580290  0.934955
    O   O1    0.562290  0.499970  0.425120  -0.611569
    O   O2    0.437590  0.500250  0.425130  -0.604022
    O   O3    0.499880  0.600300  0.425120  -0.551458
    O   O4    0.500010  0.399920  0.425130  -0.609321
    O   O5    0.500110  0.399690  0.574880  -0.567733
    O   O6    0.500010  0.600070  0.574870  -0.544089
    O   O7    0.437660  0.500120  0.574880  -0.545178
    O   O8    0.562410  0.499720  0.574870  -0.598059
    C   C1    0.589840  0.499820  0.500000  0.797881
    C   C2    0.410160  0.500170  0.500010  0.592523
    C   C3    0.499950  0.644360  0.499990  0.510940
    C   C4    0.500060  0.355630  0.500010  0.606514
    Cu  Cu3   0.877680  0.499440  0.580300  1.032382
    Cu  Cu4   0.877690  0.499990  0.419720  1.085141
    O   O9    0.815400  0.499530  0.574890  -0.600287
    O   O10   0.940100  0.499620  0.574880  -0.596816
    O   O11   0.877580  0.599760  0.575290  -0.558462
    O   O12   0.877920  0.399380  0.574490  -0.558756
    O   O13   0.877810  0.399670  0.424730  -0.581640
    O   O14   0.877440  0.600050  0.425530  -0.553196
    O   O15   0.940030  0.500010  0.425130  -0.563579
    O   O16   0.815280  0.499790  0.425140  -0.594743
    C   C5    0.787840  0.499680  0.500010  0.755680
    C   C6    0.967530  0.499750  0.500000  0.597007
    C   C7    0.877400  0.644080  0.500590  0.522696
    C   C8    0.877970  0.355350  0.499430  0.562364
    N   N1    0.500010  0.500000  0.300380  -0.210313
    C   C9    0.469260  0.549480  0.253920  0.111203
    C   C10   0.469160  0.549620  0.165080  -0.395600
    C   C11   0.500000  0.499990  0.120060  0.433507
    C   C12   0.530840  0.450370  0.165070  -0.169290
    C   C13   0.530760  0.450520  0.253910  0.145148
    C   C14   0.499990  0.500000  0.037720  -0.159479
    C   C15   0.499990  0.500000  0.962280  -0.190536
    C   C16   0.499990  0.499990  0.879950  0.449733
    C   C17   0.469140  0.549600  0.834930  -0.149710
    C   C18   0.469230  0.549450  0.746080  0.088527
    N   N2    0.499990  0.499990  0.699620  -0.087367
    C   C19   0.530750  0.450530  0.746080  -0.024984
    C   C20   0.530840  0.450380  0.834930  -0.369034
    H   H1    0.446460  0.586160  0.284760  0.115674
    H   H2    0.446400  0.586230  0.133910  0.202178
    H   H3    0.553560  0.413840  0.284740  0.084445
    H   H4    0.446420  0.586120  0.715250  0.108377
    H   H5    0.553560  0.413860  0.715250  0.204299
    H   H6    0.553610  0.413780  0.866100  0.192223
    C   C21   0.500040  0.274060  0.500010  -0.142902
    C   C22   0.499980  0.231680  0.423450  -0.029827
    C   C23   0.499960  0.150620  0.423220  -0.346768
    C   C24   0.500010  0.109530  0.499990  0.409852
    C   C25   0.500070  0.150590  0.576780  -0.125629
    C   C26   0.500090  0.231650  0.576560  0.025134
    C   C27   0.500000  0.034410  0.499990  -0.179933
    C   C28   0.499990  0.965580  0.499980  -0.174206
    C   C29   0.499970  0.890460  0.499980  0.406679
    C   C30   0.499900  0.849390  0.423200  -0.117390
    C   C31   0.499890  0.768330  0.423430  0.005046
    C   C32   0.499950  0.725930  0.499990  -0.109002
    C   C33   0.500030  0.768320  0.576540  -0.015842
    C   C34   0.500040  0.849380  0.576770  -0.354652
    H   H7    0.499940  0.259810  0.366700  0.119342
    H   H8    0.499910  0.122190  0.366560  0.196875
    H   H9    0.500130  0.259770  0.633310  0.072304
    H   H10   0.499830  0.740210  0.366680  0.090956
    H   H11   0.500080  0.740190  0.633290  0.111836
    H   H12   0.500090  0.877820  0.633420  0.199843
    C   C35   0.735570  0.499720  0.500010  -0.463619
    C   C36   0.711000  0.549660  0.445490  0.242665
    C   C37   0.711100  0.449810  0.554530  0.379983
    C   C38   0.736850  0.598410  0.392240  -0.286472
    C   C39   0.713760  0.648930  0.337080  -0.118485
    H   H13   0.770110  0.597060  0.393680  0.178850
    H   H14   0.731030  0.681300  0.301720  0.128171
    C   C40   0.642120  0.499790  0.500000  -0.480381
    C   C41   0.666690  0.449840  0.554520  0.377896
    C   C42   0.666590  0.549690  0.445480  0.229495
    C   C43   0.640630  0.598480  0.392230  -0.279031
    C   C44   0.663610  0.648970  0.337080  -0.101809
    H   H15   0.607370  0.597190  0.393660  0.173141
    H   H16   0.646280  0.681370  0.301710  0.119710
    C   C45   0.018290  0.499810  0.500010  -0.155001
    C   C46   0.044670  0.499750  0.576560  0.001683
    C   C47   0.095110  0.499800  0.576790  -0.372068
    C   C48   0.120680  0.499910  0.500020  0.426855
    C   C49   0.095120  0.499970  0.423230  -0.113219
    C   C50   0.044680  0.499920  0.423460  0.000662
    C   C51   0.167430  0.499960  0.500020  -0.187533
    C   C52   0.210260  0.500000  0.500030  -0.184869
    C   C53   0.257010  0.500040  0.500020  0.424036
    C   C54   0.282570  0.500010  0.576800  -0.112433
    C   C55   0.333010  0.500050  0.576570  0.005689
    C   C56   0.359400  0.500130  0.500010  -0.154921
    C   C57   0.333020  0.500170  0.423460  -0.002316
    C   C58   0.282570  0.500120  0.423240  -0.369074
    H   H17   0.027160  0.499670  0.633320  0.106660
    H   H18   0.112800  0.499760  0.633450  0.204233
    H   H19   0.027180  0.499970  0.366700  0.091750
    H   H20   0.350520  0.500020  0.633320  0.086351
    H   H21   0.350530  0.500230  0.366710  0.110437
    H   H22   0.264880  0.500150  0.366580  0.203049
    N   N3    0.877670  0.502470  0.699640  -0.146919
    C   C59   0.908310  0.551740  0.746290  0.113562
    C   C60   0.908410  0.551580  0.835130  -0.418486
    C   C61   0.877690  0.501850  0.879960  0.472422
    C   C62   0.846960  0.452420  0.834750  -0.150703
    C   C63   0.847040  0.452880  0.745910  0.028824
    C   C64   0.877690  0.501560  0.962300  -0.200028
    C   C65   0.877700  0.501310  0.037730  -0.152653
    C   C66   0.877700  0.501020  0.120070  0.434175
    C   C67   0.908430  0.550420  0.165280  -0.155901
    C   C68   0.908340  0.549970  0.254120  0.123629
    N   N4    0.877700  0.500400  0.300390  -0.201373
    C   C69   0.847050  0.451140  0.253740  0.126160
    C   C70   0.846960  0.451300  0.164890  -0.419408
    H   H23   0.931020  0.588490  0.715590  0.125515
    H   H24   0.931090  0.588050  0.866440  0.207495
    H   H25   0.824330  0.416340  0.714940  0.134157
    H   H26   0.931060  0.586500  0.285100  0.092757
    H   H27   0.824330  0.414400  0.284420  0.117765
    H   H28   0.824280  0.414840  0.133580  0.209673
    C   C71   0.875840  0.273770  0.503040  -0.139596
    C   C72   0.876000  0.231130  0.579430  0.016513
    C   C73   0.876210  0.150070  0.579340  -0.368350
    C   C74   0.876250  0.109250  0.502400  0.418601
    C   C75   0.876090  0.150570  0.425780  -0.116841
    C   C76   0.875890  0.231630  0.426320  0.001527
    C   C77   0.876440  0.034130  0.502120  -0.182102
    C   C78   0.876610  0.965300  0.501860  -0.174889
    C   C79   0.876800  0.890180  0.501560  0.407382
    C   C80   0.876970  0.848850  0.578170  -0.109675
    C   C81   0.877170  0.767790  0.577630  -0.002077
    C   C82   0.877210  0.725650  0.500910  -0.114588
    C   C83   0.877030  0.768300  0.424520  -0.007264
    C   C84   0.876830  0.849360  0.424610  -0.359368
    H   H29   0.875970  0.259070  0.636290  0.101724
    H   H30   0.876320  0.121440  0.635890  0.200721
    H   H31   0.875780  0.259950  0.369670  0.097795
    H   H32   0.877300  0.739470  0.634270  0.093291
    H   H33   0.877050  0.740360  0.367660  0.109222
    H   H34   0.876710  0.877990  0.368070  0.200776
    Cl  Cl1   0.569920  0.387490  0.111530  -0.038114
    Cl  Cl2   0.430040  0.612450  0.888450  -0.043707
    Cl  Cl3   0.500130  0.101740  0.674060  -0.047854
    Cl  Cl4   0.499810  0.898240  0.325920  -0.049625
    Cl  Cl5   0.125530  0.500110  0.325950  -0.053588
    Cl  Cl6   0.252170  0.499900  0.674090  -0.053856
    Cl  Cl7   0.808030  0.389420  0.888050  -0.043688
    Cl  Cl8   0.947380  0.613400  0.112000  -0.045065
    Cl  Cl9   0.876150  0.102050  0.328310  -0.050546
    Cl  Cl10  0.876950  0.897360  0.675650  -0.051105
    H   H35   0.607300  0.365560  0.588180  0.304466
    H   H36   0.650500  0.389500  0.678860  0.316691
    N   N5    0.639060  0.396970  0.612290  -0.801862
    H   H37   0.770620  0.418750  0.646830  0.341005
    H   H38   0.727480  0.336130  0.620220  0.312972
    N   N6    0.738850  0.396890  0.612290  -0.846338
