# Generated by REPEAT Assigner based on pymatgen
data_DB1-Zn2O8-AZO_A-irmof7_A_No617
_audit_creation_date              2022-05-24
_audit_creation_method            REPEAT_Assigner
_cell_length_a                    10.743500
_cell_length_b                    36.482700
_cell_length_c                    10.000000
_cell_angle_alpha                 90.000000
_cell_angle_beta                  90.000000
_cell_angle_gamma                 106.947000
_cell_volume                      3749.312975
_symmetry_space_group_name_H-M    P1
_symmetry_Int_Tables_number       1
loop_
    _symmetry_equiv_pos_site_id
    _symmetry_equiv_pos_as_xyz
    1  x,y,z
loop_
    _atom_site_type_symbol
    _atom_site_label
    _atom_site_fract_x
    _atom_site_fract_y
    _atom_site_fract_z
    _atom_type_partial_charge
    O   O1   0.320750  0.500340  0.635800  -0.591326
    O   O2   0.320550  0.499960  0.363990  -0.637945
    C   C1   0.257340  0.500090  0.499920  0.310873
    Zn  Zn1  0.500030  0.500110  0.665770  1.225601
    O   O3   0.555060  0.555160  0.363800  -0.563984
    O   O4   0.555280  0.555370  0.635620  -0.491306
    C   C2   0.574510  0.574740  0.499740  0.388057
    O   O5   0.679360  0.499740  0.364200  -0.645880
    O   O6   0.679410  0.499970  0.636010  -0.602701
    C   C3   0.742660  0.499880  0.500080  0.329925
    Zn  Zn2  0.500000  0.499890  0.334230  1.246769
    O   O7   0.444720  0.444840  0.636200  -0.552412
    O   O8   0.444970  0.444640  0.364380  -0.525695
    C   C4   0.425100  0.425260  0.500260  0.437009
    O   O9   0.816590  0.999780  0.266560  -0.590860
    O   O10  0.817180  0.000160  0.538360  -0.648733
    C   C5   0.753730  0.000070  0.402440  0.317619
    Zn  Zn3  0.996230  0.999910  0.236570  1.233601
    O   O11  0.941980  0.944860  0.538530  -0.557670
    O   O12  0.941760  0.944660  0.266720  -0.506019
    C   C6   0.922530  0.925280  0.402590  0.394281
    O   O13  0.176230  0.000180  0.538110  -0.636410
    O   O14  0.175790  0.999950  0.266310  -0.602059
    C   C7   0.239200  0.000000  0.402220  0.322170
    Zn  Zn4  0.996670  0.000130  0.568100  1.242120
    O   O15  0.050660  0.055180  0.266140  -0.561678
    O   O16  0.051350  0.055380  0.537950  -0.516275
    C   C8   0.069940  0.074760  0.402070  0.443410
    C   C9   0.880070  0.882510  0.402520  -0.081348
    C   C10  0.859540  0.861830  0.523640  0.099159
    C   C11  0.819670  0.821660  0.523250  0.251897
    C   C12  0.799500  0.801360  0.401930  -0.121682
    C   C13  0.819740  0.821750  0.281370  0.175743
    C   C14  0.859600  0.861900  0.281290  0.199522
    N   N1   0.758650  0.760220  0.398290  -0.006911
    N   N2   0.738390  0.739800  0.504050  0.035634
    C   C15  0.677310  0.678270  0.620970  0.164269
    C   C16  0.697540  0.698660  0.500410  -0.142944
    C   C17  0.677380  0.678360  0.379080  0.264361
    C   C18  0.637500  0.638190  0.378700  0.097141
    C   C19  0.616970  0.617510  0.499810  -0.078932
    C   C20  0.637440  0.638120  0.621040  0.215484
    C   C21  0.113290  0.117520  0.402130  -0.099128
    C   C22  0.134030  0.138180  0.523300  0.149766
    C   C23  0.174740  0.178340  0.523040  0.209114
    C   C24  0.195560  0.198670  0.401780  -0.124486
    C   C25  0.175120  0.178310  0.281150  0.132656
    C   C26  0.134420  0.138170  0.280960  0.193885
    N   N3   0.237270  0.239820  0.398260  0.006391
    N   N4   0.257760  0.260200  0.504080  0.045012
    C   C27  0.319910  0.321710  0.621180  0.128163
    C   C28  0.299480  0.301350  0.500560  -0.147327
    C   C29  0.320290  0.321680  0.379300  0.227135
    C   C30  0.361010  0.361840  0.379030  0.127393
    C   C31  0.381740  0.382500  0.500210  -0.086407
    C   C32  0.360610  0.361850  0.621380  0.205387
    C   C33  0.121460  0.500040  0.499960  0.199769
    C   C34  0.082070  0.524740  0.413160  0.036117
    C   C35  0.033380  0.475280  0.586810  -0.197105
    C   C36  0.173190  0.548930  0.328330  -0.177824
    C   C37  0.137940  0.573920  0.240520  0.055869
    H   H1   0.259010  0.548310  0.330600  0.223493
    C   C38  0.878540  0.499930  0.500040  0.160809
    C   C39  0.917930  0.475230  0.586840  -0.171568
    C   C40  0.966630  0.524690  0.413200  0.090753
    C   C41  0.923070  0.548820  0.328410  -0.270011
    C   C42  0.007580  0.573870  0.240560  0.140982
    H   H2   0.835960  0.548140  0.330730  0.280391
    H   H3   0.857740  0.459080  0.643490  0.175825
    H   H4   0.061810  0.459170  0.643420  0.181137
    C   C43  0.617460  0.999630  0.402290  0.173672
    C   C44  0.529070  0.974960  0.489100  0.094963
    C   C45  0.578570  0.024420  0.315460  -0.168535
    C   C46  0.572140  0.950730  0.573920  -0.247257
    C   C47  0.487290  0.925770  0.661740  0.106509
    H   H5   0.659130  0.951300  0.571650  0.253599
    C   C48  0.374900  0.999870  0.402250  0.187552
    C   C49  0.463290  0.024540  0.315440  -0.203233
    C   C50  0.413790  0.975070  0.489080  0.037009
    C   C51  0.322360  0.950980  0.573880  -0.224936
    C   C52  0.357120  0.925900  0.661720  0.127033
    H   H6   0.236670  0.951720  0.571570  0.256195
    H   H7   0.435190  0.040710  0.258800  0.186344
    H   H8   0.638970  0.040510  0.258840  0.172449
    H   H9   0.966770  0.908340  0.135360  0.311732
    H   H10  0.809770  0.873230  0.066780  0.289729
    N   N5   0.880560  0.883020  0.149510  -0.592230
    H   H11  0.712170  0.774930  0.136950  0.325421
    H   H12  0.868980  0.809850  0.067220  0.289884
    N   N6   0.798410  0.800280  0.150270  -0.680298
    H   H13  0.844550  0.908230  0.669830  0.323873
    H   H14  0.931740  0.873030  0.738220  0.260854
    N   N7   0.880460  0.882890  0.655540  -0.485479
    H   H15  0.834250  0.774830  0.667760  0.282107
    H   H16  0.746860  0.809830  0.737420  0.245456
    N   N8   0.798380  0.800220  0.654390  -0.575210
    H   H17  0.662770  0.725130  0.765390  0.311850
    H   H18  0.750170  0.690140  0.835110  0.292569
    N   N9   0.698630  0.699740  0.752070  -0.662506
    H   H19  0.652380  0.591650  0.766960  0.319188
    H   H20  0.565170  0.626820  0.835570  0.306207
    N   N10  0.616480  0.617000  0.752830  -0.630746
    H   H21  0.784900  0.725160  0.234570  0.290973
    H   H22  0.628080  0.690220  0.164920  0.231004
    N   N11  0.698660  0.699810  0.247940  -0.567715
    H   H23  0.530380  0.591820  0.232510  0.333817
    H   H24  0.687410  0.626960  0.164110  0.262921
    N   N12  0.616580  0.617130  0.246790  -0.489233
    H   H25  0.026680  0.091880  0.134780  0.310237
    H   H26  0.184290  0.126760  0.066520  0.259605
    N   N13  0.113260  0.117080  0.149110  -0.622235
    H   H27  0.283810  0.225050  0.136990  0.311073
    H   H28  0.126650  0.190390  0.066930  0.268780
    N   N14  0.197140  0.199820  0.150120  -0.681705
    H   H29  0.147650  0.091620  0.669480  0.313804
    H   H30  0.061320  0.127050  0.737740  0.275931
    N   N15  0.112420  0.117090  0.655150  -0.647673
    H   H31  0.160990  0.225260  0.667570  0.260870
    H   H32  0.247280  0.190000  0.737360  0.260561
    N   N16  0.196230  0.199760  0.654240  -0.661759
    H   H33  0.333090  0.274690  0.765580  0.301288
    H   H34  0.246530  0.309910  0.835170  0.274421
    N   N17  0.297900  0.300200  0.752220  -0.677080
    H   H35  0.346500  0.408410  0.767320  0.314570
    H   H36  0.432610  0.372980  0.836050  0.274620
    N   N18  0.381770  0.382940  0.753220  -0.652414
    H   H37  0.212180  0.275040  0.234530  0.268647
    H   H38  0.369620  0.309740  0.165210  0.250968
    N   N19  0.298800  0.300260  0.248090  -0.662687
    H   H39  0.469240  0.408130  0.233090  0.310669
    H   H40  0.311860  0.373250  0.164360  0.261807
    N   N20  0.382610  0.382930  0.247190  -0.616237
    O   O17  0.332340  0.585230  0.077020  -0.354347
    O   O18  0.237690  0.640370  0.131310  -0.262971
    N   N21  0.236770  0.600050  0.148900  0.260185
    O   O19  0.870270  0.620560  0.200470  -0.335117
    O   O20  0.003650  0.604750  0.008090  -0.270441
    N   N22  0.960130  0.599930  0.148980  0.235450
    O   O21  0.659160  0.914360  0.825220  -0.337134
    O   O22  0.455090  0.859310  0.770940  -0.253771
    N   N23  0.534220  0.899610  0.753360  0.217284
    O   O23  0.127210  0.879320  0.701840  -0.318850
    O   O24  0.291910  0.895040  0.894190  -0.263898
    N   N24  0.257960  0.899880  0.753310  0.213958
