# Generated by REPEAT Assigner based on pymatgen
data_DB1-Cu2N8-AZO_B-irmof7_B_No270
_audit_creation_date              2022-05-24
_audit_creation_method            REPEAT_Assigner
_cell_length_a                    13.291300
_cell_length_b                    19.686400
_cell_length_c                    7.052800
_cell_angle_alpha                 82.558800
_cell_angle_beta                  105.386000
_cell_angle_gamma                 67.225000
_cell_volume                      1583.594835
_symmetry_space_group_name_H-M    P1
_symmetry_Int_Tables_number       1
loop_
    _symmetry_equiv_pos_site_id
    _symmetry_equiv_pos_as_xyz
    1  x,y,z
loop_
    _atom_site_type_symbol
    _atom_site_label
    _atom_site_fract_x
    _atom_site_fract_y
    _atom_site_fract_z
    _atom_type_partial_charge
    Cu  Cu1  0.500000  0.500000  0.000000  0.373508
    Cu  Cu2  0.500000  0.500000  0.500000  0.333227
    N   N1   0.630630  0.499330  0.221750  0.129532
    N   N2   0.726590  0.500220  0.206110  -0.411593
    N   N3   0.500960  0.414260  0.375280  0.107638
    N   N4   0.499570  0.351280  0.460650  -0.358917
    N   N5   0.369380  0.500670  0.590650  0.061478
    N   N6   0.273410  0.499780  0.479690  -0.482576
    N   N7   0.499040  0.585740  0.812330  -0.098807
    N   N8   0.500430  0.648720  0.853550  -0.293164
    N   N9   0.369380  0.500670  0.778250  0.128940
    N   N10  0.273410  0.499780  0.793890  -0.525243
    N   N11  0.499040  0.585740  0.624730  0.112274
    N   N12  0.500430  0.648720  0.539350  -0.508316
    N   N13  0.630630  0.499330  0.409350  0.066207
    N   N14  0.726590  0.500220  0.520310  -0.468984
    N   N15  0.500960  0.414260  0.187680  -0.150867
    N   N16  0.499570  0.351280  0.146450  0.018491
    C   C1   0.784230  0.500170  0.392050  0.635763
    C   C2   0.499620  0.313440  0.317250  0.399005
    C   C3   0.215770  0.499830  0.607950  0.794334
    C   C4   0.500380  0.686560  0.682750  0.855965
    C   C5   0.499710  0.236950  0.344940  0.025306
    C   C6   0.499760  0.200000  0.530090  -0.197070
    C   C7   0.499840  0.128160  0.555640  -0.119604
    C   C8   0.499890  0.091820  0.396830  0.425743
    C   C9   0.499840  0.128260  0.212650  -0.299929
    C   C10  0.499760  0.200060  0.186450  -0.093212
    N   N17  0.499980  0.018240  0.418400  -0.253201
    N   N18  0.500020  0.981760  0.581600  -0.270888
    C   C11  0.500160  0.871740  0.787360  -0.374441
    C   C12  0.500110  0.908180  0.603170  0.477729
    C   C13  0.500160  0.871840  0.444360  -0.207433
    C   C14  0.500240  0.800010  0.469910  0.098065
    C   C15  0.500290  0.763040  0.655060  -0.579494
    C   C16  0.500250  0.799940  0.813550  0.257627
    H   H1   0.499720  0.227030  0.654390  0.246331
    H   H2   0.499880  0.100720  0.698750  0.075770
    H   H3   0.499880  0.100720  0.089460  0.098535
    H   H4   0.500120  0.899280  0.910540  0.111740
    H   H5   0.500120  0.899280  0.301250  0.076890
    H   H6   0.500280  0.772970  0.345610  0.191532
    C   C17  0.101840  0.499920  0.550950  -0.335441
    C   C18  0.015290  0.549370  0.612540  0.116727
    C   C19  0.081500  0.450550  0.435880  0.179377
    C   C20  0.039420  0.597580  0.727070  -0.115706
    C   C21  0.955720  0.647600  0.791300  -0.074468
    H   H7   0.112790  0.596220  0.761010  0.111415
    C   C22  0.898170  0.500080  0.449050  -0.165288
    C   C23  0.984710  0.450630  0.387460  -0.039366
    C   C24  0.918500  0.549450  0.564120  0.308424
    C   C25  0.829700  0.597750  0.622150  -0.577248
    C   C26  0.846420  0.647690  0.736620  0.291217
    H   H8   0.758080  0.596510  0.583550  0.321308
    C   C27  0.499710  0.238010  0.984790  0.638166
    O   O1   0.448960  0.224600  0.814200  -0.463752
    O   O2   0.543980  0.282500  0.979610  -0.531842
    H   H9   0.430630  0.180360  0.852440  0.323569
    C   C28  0.500290  0.761990  0.015210  0.449015
    O   O3   0.449470  0.804750  0.124400  -0.457646
    O   O4   0.544710  0.691870  0.074000  -0.334667
    H   H10  0.431020  0.859620  0.063930  0.332655
    Br  Br1  0.949940  0.378690  0.217180  -0.083527
    Br  Br2  0.212770  0.378480  0.348680  -0.102346
    Br  Br3  0.992000  0.719160  0.961510  -0.071343
    Br  Br4  0.714170  0.719380  0.822510  -0.127125
