# generated using pymatgen
data_ZnH10C15S2N3O10
_symmetry_space_group_name_H-M   'P 1'
_cell_length_a   17.57240000
_cell_length_b   39.01430000
_cell_length_c   10.00000000
_cell_angle_alpha   90.00000000
_cell_angle_beta   90.00000000
_cell_angle_gamma   116.55500000
_symmetry_Int_Tables_number   1
_chemical_formula_structural   ZnH10C15S2N3O10
_chemical_formula_sum   'Zn4 H40 C60 S8 N12 O40'
_cell_volume   6132.50594835
_cell_formula_units_Z   4
loop_
 _symmetry_equiv_pos_site_id
 _symmetry_equiv_pos_as_xyz
  1  'x, y, z'
loop_
 _atom_site_type_symbol
 _atom_site_label
 _atom_site_symmetry_multiplicity
 _atom_site_fract_x
 _atom_site_fract_y
 _atom_site_fract_z
 _atom_site_occupancy
  Zn  Zn1  1  0.50005000  0.50011000  0.66577000  1
  Zn  Zn2  1  0.49998000  0.49989000  0.33423000  1
  Zn  Zn3  1  0.99769000  0.99991000  0.23657000  1
  Zn  Zn4  1  0.99801000  0.00013000  0.56810000  1
  H  H1  1  0.87547000  0.87693000  0.61823000  1
  H  H2  1  0.80515000  0.80631000  0.61715000  1
  H  H3  1  0.69299000  0.69366000  0.71491000  1
  H  H4  1  0.69307000  0.69371000  0.28519000  1
  H  H5  1  0.12028000  0.12305000  0.61785000  1
  H  H6  1  0.19150000  0.19368000  0.61698000  1
  H  H7  1  0.30496000  0.30630000  0.71507000  1
  H  H8  1  0.30549000  0.30634000  0.28535000  1
  H  H9  1  0.12104000  0.50023000  0.71147000  1
  H  H10  1  0.12059000  0.49983000  0.28848000  1
  H  H11  1  0.87935000  0.50010000  0.71156000  1
  H  H12  1  0.87897000  0.49975000  0.28857000  1
  H  H13  1  0.61750000  0.99883000  0.19109000  1
  H  H14  1  0.61778000  0.99923000  0.61408000  1
  H  H15  1  0.37643000  0.99933000  0.19092000  1
  H  H16  1  0.37670000  0.99969000  0.61390000  1
  H  H17  1  0.94409000  0.90833000  0.13537000  1
  H  H18  1  0.83449000  0.87324000  0.06677000  1
  H  H19  1  0.73661000  0.77494000  0.13694000  1
  H  H20  1  0.84604000  0.80984000  0.06723000  1
  H  H21  1  0.62875000  0.59164000  0.76697000  1
  H  H22  1  0.58911000  0.62684000  0.83556000  1
  H  H23  1  0.55430000  0.59183000  0.23250000  1
  H  H24  1  0.66394000  0.62695000  0.16412000  1
  H  H25  1  0.05206000  0.09190000  0.13477000  1
  H  H26  1  0.16197000  0.12675000  0.06654000  1
  H  H27  1  0.26100000  0.22504000  0.13700000  1
  H  H28  1  0.15147000  0.19040000  0.06691000  1
  H  H29  1  0.37055000  0.40842000  0.76731000  1
  H  H30  1  0.40940000  0.37297000  0.83606000  1
  H  H31  1  0.44551000  0.40811000  0.23310000  1
  H  H32  1  0.33576000  0.37326000  0.16435000  1
  H  H33  1  0.39867000  0.53810000  0.84910000  1
  H  H34  1  0.32337000  0.46218000  0.15065000  1
  H  H35  1  0.60200000  0.46248000  0.85017000  1
  H  H36  1  0.67594000  0.53716000  0.15009000  1
  H  H37  1  0.81936000  0.96058000  0.05354000  1
  H  H38  1  0.89514000  0.03650000  0.75200000  1
  H  H39  1  0.17436000  0.03732000  0.05222000  1
  H  H40  1  0.09952000  0.96264000  0.75230000  1
  C  C1  1  0.35173000  0.50014000  0.49988000  1
  C  C2  1  0.57460000  0.57474000  0.49974000  1
  C  C3  1  0.64827000  0.49983000  0.50013000  1
  C  C4  1  0.42517000  0.42526000  0.50026000  1
  C  C5  1  0.84952000  0.00011000  0.40240000  1
  C  C6  1  0.92362000  0.92528000  0.40259000  1
  C  C7  1  0.14621000  0.99996000  0.40226000  1
  C  C8  1  0.07182000  0.07476000  0.40207000  1
  C  C9  1  0.88103000  0.88251000  0.40252000  1
  C  C10  1  0.86044000  0.86183000  0.52364000  1
  C  C11  1  0.82045000  0.82166000  0.52325000  1
  C  C12  1  0.80024000  0.80136000  0.40193000  1
  C  C13  1  0.82054000  0.82175000  0.28137000  1
  C  C14  1  0.86052000  0.86190000  0.28129000  1
  C  C15  1  0.67768000  0.67827000  0.62097000  1
  C  C16  1  0.69798000  0.69866000  0.50040000  1
  C  C17  1  0.67777000  0.67835000  0.37908000  1
  C  C18  1  0.63778000  0.63819000  0.37870000  1
  C  C19  1  0.61719000  0.61751000  0.49981000  1
  C  C20  1  0.63770000  0.63812000  0.62104000  1
  C  C21  1  0.11495000  0.11753000  0.40213000  1
  C  C22  1  0.13564000  0.13818000  0.52330000  1
  C  C23  1  0.17614000  0.17834000  0.52304000  1
  C  C24  1  0.19678000  0.19867000  0.40178000  1
  C  C25  1  0.17638000  0.17832000  0.28115000  1
  C  C26  1  0.13590000  0.13817000  0.28096000  1
  C  C27  1  0.32060000  0.32171000  0.62118000  1
  C  C28  1  0.30021000  0.30135000  0.50056000  1
  C  C29  1  0.32085000  0.32168000  0.37930000  1
  C  C30  1  0.36135000  0.36184000  0.37903000  1
  C  C31  1  0.38204000  0.38250000  0.50021000  1
  C  C32  1  0.36109000  0.36185000  0.62138000  1
  C  C33  1  0.27105000  0.50010000  0.49991000  1
  C  C34  1  0.22925000  0.50019000  0.62127000  1
  C  C35  1  0.14908000  0.50016000  0.62166000  1
  C  C36  1  0.10832000  0.50002000  0.49998000  1
  C  C37  1  0.14882000  0.49993000  0.37827000  1
  C  C38  1  0.22899000  0.49997000  0.37859000  1
  C  C39  1  0.03403000  0.49999000  0.50002000  1
  C  C40  1  0.96595000  0.49996000  0.50005000  1
  C  C41  1  0.89166000  0.49993000  0.50006000  1
  C  C42  1  0.85114000  0.50001000  0.62177000  1
  C  C43  1  0.77098000  0.49998000  0.62143000  1
  C  C44  1  0.72894000  0.49986000  0.50011000  1
  C  C45  1  0.77075000  0.49978000  0.37876000  1
  C  C46  1  0.85092000  0.49981000  0.37838000  1
  C  C47  1  0.76750000  0.99872000  0.40270000  1
  C  C48  1  0.72559000  0.99870000  0.28133000  1
  C  C49  1  0.64562000  0.99886000  0.28091000  1
  C  C50  1  0.60518000  0.99905000  0.40258000  1
  C  C51  1  0.64578000  0.99908000  0.52430000  1
  C  C52  1  0.72576000  0.99892000  0.52401000  1
  C  C53  1  0.53106000  0.99920000  0.40251000  1
  C  C54  1  0.46315000  0.99934000  0.40246000  1
  C  C55  1  0.38903000  0.99948000  0.40241000  1
  C  C56  1  0.34843000  0.99946000  0.28069000  1
  C  C57  1  0.26845000  0.99962000  0.28100000  1
  C  C58  1  0.22670000  0.99980000  0.40231000  1
  C  C59  1  0.26860000  0.99982000  0.52368000  1
  C  C60  1  0.34858000  0.99967000  0.52409000  1
  S  S1  1  0.27684000  0.50036000  0.77458000  1
  S  S2  1  0.27625000  0.49984000  0.22524000  1
  S  S3  1  0.72369000  0.50009000  0.77478000  1
  S  S4  1  0.72319000  0.49963000  0.22543000  1
  S  S5  1  0.77280000  0.99846000  0.12804000  1
  S  S6  1  0.77317000  0.99897000  0.67738000  1
  S  S7  1  0.22104000  0.99959000  0.12764000  1
  S  S8  1  0.22139000  0.00005000  0.67698000  1
  N  N1  1  0.75928000  0.76022000  0.39829000  1
  N  N2  1  0.73894000  0.73980000  0.50405000  1
  N  N3  1  0.23827000  0.23982000  0.39826000  1
  N  N4  1  0.25871000  0.26020000  0.50408000  1
  N  N5  1  0.88156000  0.88302000  0.14951000  1
  N  N6  1  0.79918000  0.80028000  0.15027000  1
  N  N7  1  0.61666000  0.61700000  0.75283000  1
  N  N8  1  0.61682000  0.61713000  0.24679000  1
  N  N9  1  0.11478000  0.11708000  0.14911000  1
  N  N10  1  0.19821000  0.19982000  0.15012000  1
  N  N11  1  0.38221000  0.38294000  0.75322000  1
  N  N12  1  0.38276000  0.38294000  0.24719000  1
  O  O1  1  0.39056000  0.50037000  0.63577000  1
  O  O2  1  0.39033000  0.50000000  0.36396000  1
  O  O3  1  0.55512000  0.55516000  0.36380000  1
  O  O4  1  0.55531000  0.55537000  0.63562000  1
  O  O5  1  0.60954000  0.49970000  0.36423000  1
  O  O6  1  0.60963000  0.49993000  0.63604000  1
  O  O7  1  0.44476000  0.44484000  0.63620000  1
  O  O8  1  0.44486000  0.44464000  0.36438000  1
  O  O9  1  0.88785000  0.99982000  0.26653000  1
  O  O10  1  0.88832000  0.00019000  0.53833000  1
  O  O11  1  0.94310000  0.94486000  0.53853000  1
  O  O12  1  0.94291000  0.94466000  0.26672000  1
  O  O13  1  0.10778000  0.00015000  0.53814000  1
  O  O14  1  0.10745000  0.99992000  0.26634000  1
  O  O15  1  0.05244000  0.05518000  0.26614000  1
  O  O16  1  0.05291000  0.05538000  0.53795000  1
  O  O17  1  0.35479000  0.54423000  0.81146000  1
  O  O18  1  0.21145000  0.48768000  0.89608000  1
  O  O19  1  0.32219000  0.47304000  0.77329000  1
  O  O20  1  0.26729000  0.45600000  0.18834000  1
  O  O21  1  0.23590000  0.51247000  0.10378000  1
  O  O22  1  0.37581000  0.52723000  0.22646000  1
  O  O23  1  0.64581000  0.45628000  0.81262000  1
  O  O24  1  0.78931000  0.51297000  0.89597000  1
  O  O25  1  0.67835000  0.52741000  0.77295000  1
  O  O26  1  0.73209000  0.54341000  0.18761000  1
  O  O27  1  0.76329000  0.48678000  0.10422000  1
  O  O28  1  0.62364000  0.47225000  0.22730000  1
  O  O29  1  0.76333000  0.95453000  0.09117000  1
  O  O30  1  0.73275000  0.01121000  0.00651000  1
  O  O31  1  0.87243000  0.02566000  0.12935000  1
  O  O32  1  0.85145000  0.04276000  0.71429000  1
  O  O33  1  0.70775000  0.98643000  0.79882000  1
  O  O34  1  0.81808000  0.97147000  0.67618000  1
  O  O35  1  0.23044000  0.04345000  0.08979000  1
  O  O36  1  0.26094000  0.98662000  0.00646000  1
  O  O37  1  0.12140000  0.97238000  0.12944000  1
  O  O38  1  0.14317000  0.95632000  0.71480000  1
  O  O39  1  0.28697000  0.01281000  0.79822000  1
  O  O40  1  0.17647000  0.02754000  0.67509000  1
