# generated using pymatgen
data_CuHC11NCl5O4
_symmetry_space_group_name_H-M   'P 1'
_cell_length_a   10.70030000
_cell_length_b   34.49760000
_cell_length_c   10.00000000
_cell_angle_alpha   90.00000000
_cell_angle_beta   90.00000000
_cell_angle_gamma   90.09370000
_symmetry_Int_Tables_number   1
_chemical_formula_structural   CuHC11NCl5O4
_chemical_formula_sum   'Cu4 H4 C44 N4 Cl20 O16'
_cell_volume   3691.34175665
_cell_formula_units_Z   4
loop_
 _symmetry_equiv_pos_site_id
 _symmetry_equiv_pos_as_xyz
  1  'x, y, z'
loop_
 _atom_site_type_symbol
 _atom_site_label
 _atom_site_symmetry_multiplicity
 _atom_site_fract_x
 _atom_site_fract_y
 _atom_site_fract_z
 _atom_site_occupancy
  Cu  Cu1  1  0.50000000  0.50000000  0.62726000  1
  Cu  Cu2  1  0.50001000  0.50000000  0.37274000  1
  Cu  Cu3  1  0.50050000  0.00000000  0.27502000  1
  Cu  Cu4  1  0.49987000  0.00000000  0.52953000  1
  H  H1  1  0.10985000  0.50010000  0.29691000  1
  H  H2  1  0.89017000  0.49990000  0.70308000  1
  H  H3  1  0.10952000  0.00051000  0.60711000  1
  H  H4  1  0.89085000  0.00049000  0.20031000  1
  C  C1  1  0.73439000  0.50003000  0.50001000  1
  C  C2  1  0.26562000  0.49997000  0.49999000  1
  C  C3  1  0.49985000  0.42730000  0.50000000  1
  C  C4  1  0.50018000  0.57270000  0.50000000  1
  C  C5  1  0.73457000  0.00021000  0.40294000  1
  C  C6  1  0.26580000  0.99980000  0.40162000  1
  C  C7  1  0.50004000  0.07270000  0.40228000  1
  C  C8  1  0.50034000  0.92730000  0.40228000  1
  C  C9  1  0.50033000  0.88404000  0.40227000  1
  C  C10  1  0.50018000  0.86313000  0.52342000  1
  C  C11  1  0.50018000  0.82250000  0.52310000  1
  C  C12  1  0.50033000  0.80194000  0.40182000  1
  C  C13  1  0.50048000  0.82255000  0.28122000  1
  C  C14  1  0.50048000  0.86317000  0.28108000  1
  C  C15  1  0.50004000  0.67745000  0.62106000  1
  C  C16  1  0.50019000  0.69806000  0.50046000  1
  C  C17  1  0.50034000  0.67751000  0.37917000  1
  C  C18  1  0.50033000  0.63687000  0.37885000  1
  C  C19  1  0.50018000  0.61597000  0.50000000  1
  C  C20  1  0.50003000  0.63684000  0.62120000  1
  C  C21  1  0.50004000  0.11597000  0.40227000  1
  C  C22  1  0.49984000  0.13687000  0.52342000  1
  C  C23  1  0.49984000  0.17751000  0.52310000  1
  C  C24  1  0.50003000  0.19806000  0.40182000  1
  C  C25  1  0.50023000  0.17745000  0.28122000  1
  C  C26  1  0.50023000  0.13684000  0.28108000  1
  C  C27  1  0.49966000  0.32255000  0.62105000  1
  C  C28  1  0.49986000  0.30194000  0.50046000  1
  C  C29  1  0.50005000  0.32250000  0.37917000  1
  C  C30  1  0.50005000  0.36313000  0.37885000  1
  C  C31  1  0.49985000  0.38404000  0.50000000  1
  C  C32  1  0.49966000  0.36317000  0.62120000  1
  C  C33  1  0.86911000  0.50002000  0.50000000  1
  C  C34  1  0.13091000  0.49999000  0.49999000  1
  C  C35  1  0.93501000  0.50007000  0.38006000  1
  C  C36  1  0.06501000  0.49993000  0.61993000  1
  C  C37  1  0.06500000  0.50006000  0.38005000  1
  C  C38  1  0.93502000  0.49994000  0.61994000  1
  C  C39  1  0.86929000  0.00036000  0.40333000  1
  C  C40  1  0.13108000  0.00064000  0.40409000  1
  C  C41  1  0.93488000  0.00036000  0.52346000  1
  C  C42  1  0.06549000  0.00064000  0.28396000  1
  C  C43  1  0.06488000  0.00050000  0.52384000  1
  C  C44  1  0.93549000  0.00049000  0.28358000  1
  N  N1  1  0.50032000  0.76032000  0.39824000  1
  N  N2  1  0.50019000  0.73968000  0.50403000  1
  N  N3  1  0.50003000  0.23968000  0.39824000  1
  N  N4  1  0.49986000  0.26032000  0.50403000  1
  Cl  Cl1  1  0.50068000  0.88805000  0.12743000  1
  Cl  Cl2  1  0.50067000  0.79721000  0.12846000  1
  Cl  Cl3  1  0.49999000  0.88798000  0.67713000  1
  Cl  Cl4  1  0.49998000  0.79723000  0.67600000  1
  Cl  Cl5  1  0.49985000  0.70279000  0.77382000  1
  Cl  Cl6  1  0.49984000  0.61195000  0.77484000  1
  Cl  Cl7  1  0.50053000  0.70278000  0.22628000  1
  Cl  Cl8  1  0.50052000  0.61202000  0.22515000  1
  Cl  Cl9  1  0.50048000  0.11195000  0.12743000  1
  Cl  Cl10  1  0.50047000  0.20279000  0.12846000  1
  Cl  Cl11  1  0.49959000  0.11202000  0.67713000  1
  Cl  Cl12  1  0.49959000  0.20278000  0.67600000  1
  Cl  Cl13  1  0.49942000  0.29722000  0.77382000  1
  Cl  Cl14  1  0.49941000  0.38805000  0.77484000  1
  Cl  Cl15  1  0.50030000  0.29723000  0.22628000  1
  Cl  Cl16  1  0.50029000  0.38798000  0.22515000  1
  Cl  Cl17  1  0.85278000  0.50016000  0.22764000  1
  Cl  Cl18  1  0.14724000  0.49984000  0.77236000  1
  Cl  Cl19  1  0.85227000  0.00019000  0.67565000  1
  Cl  Cl20  1  0.14810000  0.00081000  0.13177000  1
  O  O1  1  0.66250000  0.49997000  0.61869000  1
  O  O2  1  0.33718000  0.49992000  0.61867000  1
  O  O3  1  0.49965000  0.44949000  0.61868000  1
  O  O4  1  0.50002000  0.55040000  0.61868000  1
  O  O5  1  0.50032000  0.55051000  0.38132000  1
  O  O6  1  0.50004000  0.44961000  0.38132000  1
  O  O7  1  0.33738000  0.49998000  0.38131000  1
  O  O8  1  0.66284000  0.50010000  0.38133000  1
  O  O9  1  0.66297000  0.00019000  0.28405000  1
  O  O10  1  0.33766000  0.99993000  0.28314000  1
  O  O11  1  0.50014000  0.05051000  0.28359000  1
  O  O12  1  0.50049000  0.94961000  0.28359000  1
  O  O13  1  0.50019000  0.94949000  0.52095000  1
  O  O14  1  0.49993000  0.05040000  0.52096000  1
  O  O15  1  0.33727000  0.99987000  0.52049000  1
  O  O16  1  0.66272000  0.00006000  0.52141000  1
