# generated using pymatgen
data_ZnH9C13NO4
_symmetry_space_group_name_H-M   'P 1'
_cell_length_a   11.00490000
_cell_length_b   36.55940000
_cell_length_c   10.00000000
_cell_angle_alpha   90.00000000
_cell_angle_beta   90.00000000
_cell_angle_gamma   107.33700000
_symmetry_Int_Tables_number   1
_chemical_formula_structural   ZnH9C13NO4
_chemical_formula_sum   'Zn4 H36 C52 N4 O16'
_cell_volume   3840.53996020
_cell_formula_units_Z   4
loop_
 _symmetry_equiv_pos_site_id
 _symmetry_equiv_pos_as_xyz
  1  'x, y, z'
loop_
 _atom_site_type_symbol
 _atom_site_label
 _atom_site_symmetry_multiplicity
 _atom_site_fract_x
 _atom_site_fract_y
 _atom_site_fract_z
 _atom_site_occupancy
  Zn  Zn1  1  0.50004000  0.50011000  0.66577000  1
  Zn  Zn2  1  0.50000000  0.49989000  0.33423000  1
  Zn  Zn3  1  0.99633000  0.99991000  0.23657000  1
  Zn  Zn4  1  0.99675000  0.00013000  0.56810000  1
  H  H1  1  0.87461000  0.87693000  0.61823000  1
  H  H2  1  0.80447000  0.80631000  0.61715000  1
  H  H3  1  0.80451000  0.80637000  0.18743000  1
  H  H4  1  0.69261000  0.69366000  0.71491000  1
  H  H5  1  0.69265000  0.69371000  0.28519000  1
  H  H6  1  0.62252000  0.62309000  0.28411000  1
  H  H7  1  0.11864000  0.12305000  0.61785000  1
  H  H8  1  0.19022000  0.19368000  0.61698000  1
  H  H9  1  0.19097000  0.19372000  0.18726000  1
  H  H10  1  0.30419000  0.30630000  0.71507000  1
  H  H11  1  0.30494000  0.30634000  0.28535000  1
  H  H12  1  0.37652000  0.37697000  0.28448000  1
  H  H13  1  0.89246000  0.50012000  0.70428000  1
  H  H14  1  0.10798000  0.50019000  0.70421000  1
  H  H15  1  0.08313000  0.47464000  0.20023000  1
  H  H16  1  0.13330000  0.52490000  0.20052000  1
  H  H17  1  0.91621000  0.52483000  0.19978000  1
  H  H18  1  0.86606000  0.47456000  0.20111000  1
  H  H19  1  0.38849000  0.99967000  0.19801000  1
  H  H20  1  0.60375000  0.99947000  0.19805000  1
  H  H21  1  0.62969000  0.02501000  0.70204000  1
  H  H22  1  0.58003000  0.97475000  0.70174000  1
  H  H23  1  0.36322000  0.97496000  0.70251000  1
  H  H24  1  0.41289000  0.02522000  0.70118000  1
  H  H25  1  0.94576000  0.87680000  0.09586000  1
  H  H26  1  0.90796000  0.91073000  0.16206000  1
  H  H27  1  0.80327000  0.87675000  0.09570000  1
  H  H28  1  0.69395000  0.62318000  0.80646000  1
  H  H29  1  0.58880000  0.58930000  0.74028000  1
  H  H30  1  0.55163000  0.62331000  0.80664000  1
  H  H31  1  0.04859000  0.12346000  0.09535000  1
  H  H32  1  0.08544000  0.08937000  0.16158000  1
  H  H33  1  0.19080000  0.12321000  0.09546000  1
  H  H34  1  0.30427000  0.37690000  0.80670000  1
  H  H35  1  0.41009000  0.41065000  0.74075000  1
  H  H36  1  0.44629000  0.37648000  0.80716000  1
  C  C1  1  0.26312000  0.50010000  0.49992000  1
  C  C2  1  0.57452000  0.57474000  0.49974000  1
  C  C3  1  0.73689000  0.49987000  0.50008000  1
  C  C4  1  0.42511000  0.42526000  0.50026000  1
  C  C5  1  0.75959000  0.00007000  0.40244000  1
  C  C6  1  0.92260000  0.92528000  0.40259000  1
  C  C7  1  0.23352000  0.00000000  0.40222000  1
  C  C8  1  0.07005000  0.07476000  0.40207000  1
  C  C9  1  0.88013000  0.88251000  0.40252000  1
  C  C10  1  0.85960000  0.86183000  0.52364000  1
  C  C11  1  0.81972000  0.82166000  0.52325000  1
  C  C12  1  0.79955000  0.80136000  0.40193000  1
  C  C13  1  0.81979000  0.82175000  0.28137000  1
  C  C14  1  0.85966000  0.86190000  0.28129000  1
  C  C15  1  0.67733000  0.67827000  0.62097000  1
  C  C16  1  0.69757000  0.69866000  0.50041000  1
  C  C17  1  0.67741000  0.67836000  0.37908000  1
  C  C18  1  0.63752000  0.63819000  0.37870000  1
  C  C19  1  0.61699000  0.61751000  0.49981000  1
  C  C20  1  0.63746000  0.63812000  0.62104000  1
  C  C21  1  0.11340000  0.11752000  0.40213000  1
  C  C22  1  0.13413000  0.13818000  0.52330000  1
  C  C23  1  0.17483000  0.17834000  0.52304000  1
  C  C24  1  0.19563000  0.19867000  0.40178000  1
  C  C25  1  0.17520000  0.17831000  0.28115000  1
  C  C26  1  0.13451000  0.13817000  0.28096000  1
  C  C27  1  0.31996000  0.32171000  0.62118000  1
  C  C28  1  0.29953000  0.30135000  0.50056000  1
  C  C29  1  0.32033000  0.32168000  0.37930000  1
  C  C30  1  0.36103000  0.36184000  0.37903000  1
  C  C31  1  0.38176000  0.38250000  0.50021000  1
  C  C32  1  0.36065000  0.36185000  0.62138000  1
  C  C33  1  0.13274000  0.50004000  0.49996000  1
  C  C34  1  0.86727000  0.49993000  0.50004000  1
  C  C35  1  0.06614000  0.49992000  0.39436000  1
  C  C36  1  0.93387000  0.50005000  0.60564000  1
  C  C37  1  0.93364000  0.49987000  0.39441000  1
  C  C38  1  0.06637000  0.50010000  0.60560000  1
  C  C39  1  0.06315000  0.49980000  0.24416000  1
  C  C40  1  0.93630000  0.49974000  0.24420000  1
  C  C41  1  0.62879000  0.99960000  0.40230000  1
  C  C42  1  0.36371000  0.99987000  0.40225000  1
  C  C43  1  0.56248000  0.99975000  0.50791000  1
  C  C44  1  0.43003000  0.99971000  0.29664000  1
  C  C45  1  0.43017000  0.99989000  0.50788000  1
  C  C46  1  0.56233000  0.99957000  0.29667000  1
  C  C47  1  0.55977000  0.99988000  0.65811000  1
  C  C48  1  0.43309000  0.00001000  0.65809000  1
  C  C49  1  0.88122000  0.88361000  0.14580000  1
  C  C50  1  0.61591000  0.61641000  0.75653000  1
  C  C51  1  0.11276000  0.11648000  0.14541000  1
  C  C52  1  0.38240000  0.38354000  0.75693000  1
  N  N1  1  0.75869000  0.76022000  0.39829000  1
  N  N2  1  0.73843000  0.73980000  0.50405000  1
  N  N3  1  0.23734000  0.23982000  0.39826000  1
  N  N4  1  0.25782000  0.26020000  0.50408000  1
  O  O1  1  0.32502000  0.50034000  0.63580000  1
  O  O2  1  0.32482000  0.49997000  0.36399000  1
  O  O3  1  0.55507000  0.55516000  0.36380000  1
  O  O4  1  0.55529000  0.55537000  0.63562000  1
  O  O5  1  0.67509000  0.49973000  0.36420000  1
  O  O6  1  0.67515000  0.49996000  0.63601000  1
  O  O7  1  0.44473000  0.44484000  0.63620000  1
  O  O8  1  0.44496000  0.44464000  0.36438000  1
  O  O9  1  0.82096000  0.99979000  0.26656000  1
  O  O10  1  0.82153000  0.00016000  0.53836000  1
  O  O11  1  0.94205000  0.94486000  0.53853000  1
  O  O12  1  0.94184000  0.94466000  0.26672000  1
  O  O13  1  0.17205000  0.00018000  0.53812000  1
  O  O14  1  0.17162000  0.99995000  0.26631000  1
  O  O15  1  0.05077000  0.05518000  0.26614000  1
  O  O16  1  0.05145000  0.05538000  0.53795000  1
