# Generated by REPEAT Assigner based on pymatgen
data_DB1-Cu2O8-irmof10_A-irmof8_A_No65
_audit_creation_date              2022-05-24
_audit_creation_method            REPEAT_Assigner
_cell_length_a                    29.891500
_cell_length_b                    40.866800
_cell_length_c                    10.000000
_cell_angle_alpha                 90.000000
_cell_angle_beta                  90.000000
_cell_angle_gamma                 43.124400
_cell_volume                      8350.464791
_symmetry_space_group_name_H-M    P1
_symmetry_Int_Tables_number       1
loop_
    _symmetry_equiv_pos_site_id
    _symmetry_equiv_pos_as_xyz
    1  x,y,z
loop_
    _atom_site_type_symbol
    _atom_site_label
    _atom_site_fract_x
    _atom_site_fract_y
    _atom_site_fract_z
    _atom_type_partial_charge
    Cu  Cu1   0.500000  0.500000  0.372740  1.125032
    Cu  Cu2   0.500000  0.500000  0.627260  1.152690
    O   O1    0.437770  0.562240  0.381310  -0.673959
    O   O2    0.562230  0.437630  0.381320  -0.457415
    O   O3    0.441840  0.499870  0.381320  -0.401235
    O   O4    0.558160  0.500010  0.381320  -0.396985
    O   O5    0.558180  0.500120  0.618680  -0.564714
    O   O6    0.441830  0.500010  0.618680  -0.571080
    O   O7    0.562220  0.437710  0.618680  -0.544160
    O   O8    0.437780  0.562370  0.618670  -0.597415
    C   C1    0.410310  0.589780  0.500000  0.650627
    C   C2    0.589690  0.410230  0.500010  0.316481
    C   C3    0.416160  0.499940  0.500000  0.324376
    C   C4    0.583840  0.500070  0.500000  0.312219
    Cu  Cu3   0.999870  0.500130  0.627300  1.124506
    Cu  Cu4   0.000110  0.499900  0.372780  1.152692
    O   O9    0.937890  0.562370  0.618260  -0.677324
    O   O10   0.062120  0.437760  0.619170  -0.458923
    O   O11   0.058300  0.499990  0.618720  -0.392961
    O   O12   0.941710  0.500130  0.618720  -0.401278
    O   O13   0.941690  0.500020  0.381360  -0.568716
    O   O14   0.058250  0.499920  0.381350  -0.566685
    O   O15   0.062200  0.437610  0.381810  -0.542958
    O   O16   0.937840  0.562270  0.380910  -0.597108
    C   C5    0.910500  0.589790  0.499380  0.653689
    C   C6    0.089470  0.410240  0.500690  0.317360
    C   C7    0.083950  0.499960  0.500030  0.311848
    C   C8    0.916030  0.500070  0.500030  0.321695
    Cu  Cu5   0.035300  0.965000  0.627310  1.123044
    Cu  Cu6   0.034990  0.965000  0.372800  1.150304
    O   O17   0.097500  0.902760  0.618740  -0.676419
    O   O18   0.972820  0.027370  0.618730  -0.456400
    O   O19   0.977110  0.964890  0.619380  -0.393516
    O   O20   0.093210  0.965240  0.618090  -0.401124
    O   O21   0.093160  0.965130  0.380730  -0.567572
    O   O22   0.977090  0.964750  0.382020  -0.565977
    O   O23   0.972670  0.027300  0.381380  -0.541245
    O   O24   0.097480  0.902630  0.381380  -0.596094
    C   C9    0.124950  0.875230  0.500050  0.652755
    C   C10   0.945330  0.054780  0.500050  0.311235
    C   C11   0.951530  0.964710  0.500980  0.312358
    C   C12   0.118760  0.965290  0.499120  0.321589
    Cu  Cu7   0.536780  0.964900  0.369320  1.120045
    Cu  Cu8   0.536860  0.965130  0.623840  1.151144
    O   O25   0.598790  0.902660  0.378350  -0.674770
    O   O26   0.474780  0.027270  0.377440  -0.443705
    O   O27   0.595180  0.964790  0.377250  -0.378732
    O   O28   0.478380  0.965140  0.378540  -0.404049
    O   O29   0.478440  0.965250  0.615900  -0.559932
    O   O30   0.595270  0.964870  0.614610  -0.580223
    O   O31   0.474860  0.027420  0.614800  -0.544984
    O   O32   0.598840  0.902760  0.615710  -0.593867
    C   C13   0.626180  0.875240  0.497230  0.645860
    C   C14   0.447450  0.054790  0.495920  0.305468
    C   C15   0.621010  0.964730  0.495650  0.319667
    C   C16   0.452630  0.965300  0.497510  0.315228
    C   C17   0.632060  0.500070  0.500010  0.294819
    C   C18   0.867800  0.500070  0.500030  0.289833
    C   C19   0.655710  0.500010  0.380070  -0.180435
    C   C20   0.702630  0.500010  0.378960  0.025264
    C   C21   0.844160  0.500130  0.619970  -0.172549
    C   C22   0.797240  0.500130  0.621080  0.013993
    C   C23   0.844270  0.500020  0.380090  -0.270732
    C   C24   0.797360  0.500010  0.378970  -0.136828
    C   C25   0.655600  0.500120  0.619950  -0.275100
    C   C26   0.702510  0.500120  0.621070  -0.121378
    C   C27   0.726300  0.500070  0.500020  0.033875
    C   C28   0.773570  0.500070  0.500020  0.045106
    H   H1    0.718530  0.499970  0.295480  0.049880
    H   H2    0.781340  0.500170  0.704560  0.054030
    H   H3    0.860370  0.499980  0.296940  0.184624
    H   H4    0.781530  0.499970  0.295480  0.157753
    H   H5    0.639500  0.500160  0.703090  0.185546
    H   H6    0.718330  0.500160  0.704550  0.149764
    C   C29   0.367930  0.499940  0.500010  0.288513
    C   C30   0.132180  0.499950  0.500030  0.293603
    C   C31   0.344410  0.499870  0.380070  -0.173074
    C   C32   0.297490  0.499870  0.378960  0.013028
    C   C33   0.155700  0.500030  0.619970  -0.178463
    C   C34   0.202610  0.500030  0.621080  0.021305
    C   C35   0.155840  0.499880  0.380090  -0.273370
    C   C36   0.202760  0.499880  0.378970  -0.120633
    C   C37   0.344270  0.500020  0.619950  -0.275394
    C   C38   0.297350  0.500020  0.621070  -0.127263
    C   C39   0.273690  0.499950  0.500020  0.044520
    C   C40   0.226420  0.499950  0.500020  0.034205
    H   H7    0.281680  0.499820  0.295480  0.056052
    H   H8    0.218430  0.500080  0.704560  0.052766
    H   H9    0.139830  0.499830  0.296940  0.184577
    H   H10   0.218670  0.499830  0.295480  0.149133
    H   H11   0.360270  0.500070  0.703090  0.187427
    H   H12   0.281440  0.500070  0.704550  0.151991
    C   C41   0.210300  0.789910  0.597920  -0.115150
    C   C42   0.192270  0.807800  0.363860  -0.339023
    C   C43   0.240820  0.759220  0.327680  0.509688
    C   C44   0.275130  0.724960  0.432360  -0.064254
    C   C45   0.324960  0.675090  0.402140  -0.097748
    C   C46   0.342990  0.657210  0.636190  -0.313701
    C   C47   0.294450  0.705790  0.672370  0.454036
    C   C48   0.260140  0.740040  0.567690  -0.036944
    C   C49   0.177930  0.822230  0.500040  -0.034992
    C   C50   0.357330  0.642780  0.500010  -0.045573
    H   H13   0.199180  0.801110  0.702570  0.116412
    H   H14   0.165130  0.834910  0.286720  0.185171
    H   H15   0.336080  0.663900  0.297490  0.109823
    H   H16   0.370140  0.630090  0.713320  0.181789
    C   C51   0.641320  0.358630  0.500010  0.355416
    C   C52   0.893700  0.106380  0.500040  0.357392
    C   C53   0.666540  0.333380  0.380080  -0.226612
    C   C54   0.716770  0.283180  0.378970  0.065807
    C   C55   0.868480  0.131620  0.619980  -0.224204
    C   C56   0.818250  0.181830  0.621090  0.050838
    C   C57   0.868420  0.131620  0.380100  -0.330274
    C   C58   0.818180  0.181820  0.378980  -0.089549
    C   C59   0.666610  0.333390  0.619960  -0.335628
    C   C60   0.716840  0.283180  0.621080  -0.077111
    C   C61   0.742200  0.257790  0.500020  0.012775
    C   C62   0.792820  0.207210  0.500030  0.032148
    H   H17   0.733730  0.266210  0.295490  0.031052
    H   H18   0.801290  0.198800  0.704570  0.037319
    H   H19   0.885580  0.114440  0.296960  0.198845
    H   H20   0.801180  0.198790  0.295490  0.143350
    H   H21   0.649440  0.350570  0.703100  0.200527
    H   H22   0.733840  0.266210  0.704560  0.138830
    C   C63   0.711190  0.789830  0.400000  -0.098340
    C   C64   0.693300  0.807940  0.633920  -0.313551
    C   C65   0.741670  0.759390  0.670460  0.450566
    C   C66   0.775830  0.725040  0.566030  -0.034224
    C   C67   0.825500  0.675200  0.596620  -0.114858
    C   C68   0.843390  0.657090  0.362690  -0.340370
    C   C69   0.795010  0.705630  0.326160  0.509353
    C   C70   0.760850  0.739990  0.430590  -0.064784
    C   C71   0.678970  0.822240  0.497630  -0.042252
    C   C72   0.857720  0.642790  0.498980  -0.035291
    H   H23   0.700060  0.800930  0.295260  0.109799
    H   H24   0.666270  0.835120  0.710870  0.180967
    H   H25   0.836620  0.664100  0.701350  0.115971
    H   H26   0.870420  0.629900  0.285760  0.186251
    C   C73   0.140820  0.358640  0.501060  0.351047
    C   C74   0.391860  0.106390  0.502870  0.366166
    C   C75   0.165870  0.333510  0.621180  -0.221985
    C   C76   0.215830  0.283310  0.622650  0.052252
    C   C77   0.366810  0.131520  0.382750  -0.229489
    C   C78   0.316860  0.181720  0.381270  0.063072
    C   C79   0.366660  0.131750  0.622630  -0.344116
    C   C80   0.316700  0.181950  0.623390  -0.078140
    C   C81   0.166020  0.333290  0.381300  -0.326183
    C   C82   0.215980  0.283080  0.380550  -0.091482
    C   C83   0.241170  0.257810  0.501780  0.029950
    C   C84   0.291510  0.207220  0.502150  0.018509
    H   H27   0.232670  0.266410  0.706260  0.036382
    H   H28   0.300020  0.198620  0.297670  0.029219
    H   H29   0.383710  0.114640  0.705900  0.203707
    H   H30   0.299760  0.199000  0.706750  0.140174
    H   H31   0.148980  0.350390  0.298030  0.196810
    H   H32   0.232920  0.266040  0.297180  0.144901
    C   C85   0.166780  0.965490  0.498580  0.292141
    C   C86   0.401540  0.966480  0.495940  0.288130
    C   C87   0.190360  0.965650  0.618260  -0.174195
    C   C88   0.237090  0.965840  0.618840  0.014757
    C   C89   0.377950  0.966320  0.376270  -0.180066
    C   C90   0.331230  0.966130  0.375680  0.025887
    C   C91   0.378140  0.966440  0.616140  -0.281451
    C   C92   0.331420  0.966240  0.617780  -0.117382
    C   C93   0.190180  0.965540  0.378380  -0.273607
    C   C94   0.236900  0.965730  0.376740  -0.133815
    C   C95   0.260620  0.965890  0.497530  0.043879
    C   C96   0.307700  0.966080  0.497000  0.034905
    H   H33   0.252950  0.965950  0.702150  0.054671
    H   H34   0.315370  0.966020  0.292370  0.051172
    H   H35   0.394190  0.966540  0.699110  0.189766
    H   H36   0.315690  0.966210  0.701440  0.148628
    H   H37   0.174120  0.965430  0.295420  0.186372
    H   H38   0.252630  0.965760  0.293080  0.156432
    C   C97   0.903510  0.964510  0.501520  0.290218
    C   C98   0.668770  0.963510  0.504110  0.308758
    C   C99   0.880100  0.964480  0.621720  -0.178909
    C   C100  0.833380  0.964280  0.623350  0.019294
    C   C101  0.692190  0.963530  0.383910  -0.185898
    C   C102  0.738900  0.963730  0.382280  0.022783
    C   C103  0.692330  0.963680  0.623790  -0.285931
    C   C104  0.739050  0.963880  0.624390  -0.122341
    C   C105  0.879950  0.964330  0.381840  -0.266628
    C   C106  0.833230  0.964130  0.381240  -0.128383
    C   C107  0.809680  0.964110  0.502550  0.040399
    C   C108  0.762600  0.963910  0.503080  0.038664
    H   H39   0.817640  0.964270  0.707000  0.053259
    H   H40   0.754640  0.963750  0.298620  0.047494
    H   H41   0.676400  0.963660  0.707110  0.189063
    H   H42   0.754900  0.964000  0.707700  0.150808
    H   H43   0.895880  0.964350  0.298520  0.180831
    H   H44   0.817380  0.964020  0.297930  0.153375
    Br  Br1   0.621060  0.499930  0.200170  -0.081405
    Br  Br2   0.878810  0.500210  0.799870  -0.083750
    Br  Br3   0.379260  0.499760  0.200170  -0.083791
    Br  Br4   0.120850  0.500140  0.799870  -0.081655
    Br  Br5   0.629300  0.370550  0.200170  -0.053780
    Br  Br6   0.905720  0.094460  0.799880  -0.053535
    Br  Br7   0.128760  0.370840  0.800810  -0.054235
    Br  Br8   0.403920  0.094190  0.203120  -0.056701
    Br  Br9   0.155910  0.965590  0.798540  -0.082890
    Br  Br10  0.412410  0.966380  0.195980  -0.077613
    Br  Br11  0.914800  0.964740  0.801230  -0.081478
    Br  Br12  0.657480  0.963280  0.204400  -0.089103
    H   H45   0.226880  0.751530  0.849180  0.357393
    H   H46   0.318770  0.703540  0.890280  0.364160
    N   N1    0.278640  0.721690  0.816690  -0.922668
    H   H47   0.264580  0.713390  0.151100  0.398044
    H   H48   0.260300  0.761560  0.109530  0.407273
    N   N2    0.256630  0.743320  0.183360  -1.020381
    H   H49   0.771450  0.751210  0.149010  0.396386
    H   H50   0.775360  0.703190  0.108270  0.406443
    N   N3    0.779210  0.721400  0.181730  -1.017831
    H   H51   0.809210  0.713730  0.847370  0.357371
    H   H52   0.717320  0.761940  0.888580  0.365333
    N   N4    0.757460  0.743630  0.814890  -0.921935
