# Generated by REPEAT Assigner based on pymatgen
data_DB1-Zn2O8N2-irmof20_A-irmof6_A_No46
_audit_creation_date              2022-05-24
_audit_creation_method            REPEAT_Assigner
_cell_length_a                    23.706800
_cell_length_b                    12.701400
_cell_length_c                    11.716400
_cell_angle_alpha                 90.038300
_cell_angle_beta                  89.878800
_cell_angle_gamma                 89.818300
_cell_volume                      3527.893489
_symmetry_space_group_name_H-M    P1
_symmetry_Int_Tables_number       1
loop_
    _symmetry_equiv_pos_site_id
    _symmetry_equiv_pos_as_xyz
    1  x,y,z
loop_
    _atom_site_type_symbol
    _atom_site_label
    _atom_site_fract_x
    _atom_site_fract_y
    _atom_site_fract_z
    _atom_type_partial_charge
    O   O1    0.500380  0.348160  0.615900  -0.462859
    O   O2    0.500100  0.348180  0.383910  -0.505140
    C   C1    0.500160  0.294670  0.499920  0.380293
    Zn  Zn1   0.500000  0.500020  0.641480  0.921996
    O   O3    0.581330  0.499880  0.383790  -0.439539
    O   O4    0.581370  0.500020  0.615790  -0.525223
    C   C2    0.610020  0.499840  0.499820  0.415943
    O   O5    0.499730  0.651870  0.384100  -0.487205
    O   O6    0.499800  0.651850  0.616090  -0.441169
    C   C3    0.499800  0.705360  0.500080  0.341433
    Zn  Zn2   0.500000  0.500010  0.358520  0.903298
    O   O7    0.418670  0.499940  0.616210  -0.534465
    O   O8    0.418630  0.500190  0.384220  -0.444605
    C   C4    0.389980  0.499830  0.500180  0.410092
    O   O9    0.964030  0.346260  0.384070  -0.494884
    O   O10   0.964320  0.346570  0.616060  -0.471505
    C   C5    0.964320  0.292910  0.500050  0.362620
    Zn  Zn3   0.964230  0.498080  0.358480  0.896367
    O   O11   0.882890  0.498880  0.616180  -0.555457
    O   O12   0.882860  0.498730  0.384180  -0.403303
    C   C6    0.854200  0.498920  0.500140  0.401497
    O   O13   0.964310  0.650250  0.615860  -0.485961
    O   O14   0.964240  0.649940  0.383870  -0.460938
    C   C7    0.964180  0.703600  0.499880  0.352709
    Zn  Zn4   0.964220  0.498430  0.641450  0.943677
    O   O15   0.045560  0.497410  0.383750  -0.519490
    O   O16   0.045590  0.497950  0.615750  -0.481383
    C   C8    0.074250  0.497230  0.499790  0.425423
    C   C9    0.468250  0.559030  0.882120  0.064703
    S   S1    0.545830  0.414840  0.876390  0.195174
    C   C10   0.531760  0.440990  0.117880  0.266637
    S   S2    0.454180  0.585190  0.123610  0.211825
    N   N1    0.500000  0.500020  0.807930  -0.060755
    N   N2    0.500010  0.500010  0.192070  -0.146657
    C   C11   0.520470  0.461980  0.999880  -0.182238
    C   C12   0.479540  0.538040  0.000120  0.054272
    C   C13   0.499940  0.891180  0.590560  0.055683
    S   S3    0.499870  0.886120  0.369380  0.032249
    C   C14   0.500020  0.108850  0.409440  0.103267
    S   S4    0.500090  0.113910  0.630630  0.029811
    C   C15   0.499870  0.822840  0.500050  0.006686
    C   C16   0.500090  0.177190  0.499960  -0.032844
    C   C17   0.499960  0.999970  0.441670  -0.018036
    C   C18   0.500000  0.000070  0.558340  0.003076
    C   C19   0.793700  0.499150  0.500060  -0.003571
    C   C20   0.670520  0.499610  0.499900  -0.038431
    C   C21   0.762730  0.499320  0.590170  0.150235
    C   C22   0.701500  0.499440  0.409800  0.198834
    C   C23   0.701250  0.499550  0.590090  -0.058709
    C   C24   0.762980  0.499200  0.409880  -0.021654
    C   C25   0.761250  0.499410  0.718370  -0.174662
    C   C26   0.702380  0.499630  0.718290  0.107216
    H   H1    0.782030  0.430270  0.756100  0.034863
    H   H2    0.782230  0.568380  0.755410  0.044742
    H   H3    0.681490  0.568810  0.755970  -0.002744
    H   H4    0.681300  0.430700  0.755270  0.005710
    C   C27   0.290590  0.499110  0.409520  -0.006848
    S   S5    0.292900  0.498890  0.630710  0.048112
    C   C28   0.173640  0.497950  0.590440  0.011553
    S   S6    0.171330  0.498170  0.369250  0.037255
    C   C29   0.327040  0.499310  0.500100  -0.013046
    C   C30   0.137190  0.497750  0.499870  -0.023872
    C   C31   0.232040  0.498470  0.558320  0.027768
    C   C32   0.232190  0.498590  0.441650  0.061178
    C   C33   0.995910  0.556550  0.117850  0.043252
    S   S7    0.918500  0.412950  0.123580  0.225761
    C   C34   0.932540  0.438690  0.882080  0.094839
    S   S8    0.009940  0.582290  0.876350  0.211435
    N   N3    0.964220  0.497870  0.192040  -0.052745
    N   N4    0.964220  0.497370  0.807900  -0.081581
    C   C35   0.943800  0.459740  0.000080  -0.083570
    C   C36   0.984640  0.535490  0.999850  0.040492
    C   C37   0.963810  0.889310  0.409390  0.046929
    S   S9    0.963890  0.884530  0.630570  0.022705
    C   C38   0.963470  0.107210  0.590500  0.047654
    S   S10   0.963390  0.111980  0.369320  0.025981
    C   C39   0.963960  0.821080  0.499900  0.009953
    C   C40   0.963310  0.175430  0.499990  0.005402
    C   C41   0.963660  0.998280  0.558280  0.010425
    C   C42   0.963620  0.998230  0.441610  0.005297
    Br  Br1   0.408950  0.669250  0.829080  0.075319
    Br  Br2   0.591060  0.330770  0.170920  0.099698
    Br  Br3   0.499960  0.842080  0.759640  -0.088757
    Br  Br4   0.499990  0.157950  0.240370  -0.116959
    Br  Br5   0.317190  0.499510  0.240500  -0.106033
    Br  Br6   0.147040  0.497550  0.759470  -0.105194
    Br  Br7   0.055070  0.666380  0.170880  0.083424
    Br  Br8   0.873370  0.328860  0.829050  0.107313
    Br  Br9   0.963850  0.840000  0.240320  -0.088006
    Br  Br10  0.963430  0.156520  0.759580  -0.095964
    Cl  Cl1   0.670480  0.499490  0.273450  -0.197354
    Cl  Cl2   0.794360  0.498930  0.273610  -0.148720
