data_DB1-Zn2O8-irmof8_A-PEDOT_A_No11_repeat
_audit_creation_date              2024-02-23
_audit_creation_method            'Materials Studio'
_symmetry_space_group_name_H-M    'P1'
_symmetry_Int_Tables_number       1
_symmetry_cell_setting            triclinic
loop_
_symmetry_equiv_pos_as_xyz
  x,y,z
_cell_length_a                    26.3815
_cell_length_b                    18.6423
_cell_length_c                    10.0000
_cell_angle_alpha                 90.0000
_cell_angle_beta                  90.0000
_cell_angle_gamma                 45.1480
loop_
_atom_site_label
_atom_site_type_symbol
_atom_site_fract_x
_atom_site_fract_y
_atom_site_fract_z
_atom_site_U_iso_or_equiv
_atom_site_adp_type
_atom_site_occupancy
O1     O     0.42746   0.64601   0.63576   0.00000  Uiso   1.00
O2     O     0.42708   0.64582   0.36395   0.00000  Uiso   1.00
C1     C     0.40149   0.69733   0.49987   0.00000  Uiso   1.00
Zn1    Zn    0.50009   0.50009   0.66577   0.00000  Uiso   1.00
O3     O     0.57297   0.50002   0.36383   0.00000  Uiso   1.00
O4     O     0.57321   0.50005   0.63564   0.00000  Uiso   1.00
C2     C     0.59880   0.50013   0.49978   0.00000  Uiso   1.00
O5     O     0.57265   0.35396   0.36424   0.00000  Uiso   1.00
O6     O     0.57285   0.35415   0.63605   0.00000  Uiso   1.00
C3     C     0.59848   0.30264   0.50014   0.00000  Uiso   1.00
Zn2    Zn    0.49993   0.49988   0.33423   0.00000  Uiso   1.00
O7     O     0.42695   0.50016   0.63617   0.00000  Uiso   1.00
O8     O     0.42690   0.49975   0.36435   0.00000  Uiso   1.00
C4     C     0.40104   0.50018   0.50023   0.00000  Uiso   1.00
O9     O     0.92577   0.64792   0.36420   0.00000  Uiso   1.00
O10    O     0.92632   0.64779   0.63600   0.00000  Uiso   1.00
C5     C     0.90047   0.69927   0.50007   0.00000  Uiso   1.00
Zn3    Zn    0.99888   0.50199   0.33424   0.00000  Uiso   1.00
O11    O     0.92632   0.50142   0.63618   0.00000  Uiso   1.00
O12    O     0.92608   0.50139   0.36437   0.00000  Uiso   1.00
C6     C     0.90048   0.50131   0.50024   0.00000  Uiso   1.00
O13    O     0.07222   0.35593   0.63583   0.00000  Uiso   1.00
O14    O     0.07187   0.35606   0.36402   0.00000  Uiso   1.00
C7     C     0.09766   0.30458   0.49995   0.00000  Uiso   1.00
Zn4    Zn    0.99921   0.50186   0.66578   0.00000  Uiso   1.00
O15    O     0.07166   0.50264   0.36384   0.00000  Uiso   1.00
O16    O     0.07209   0.50229   0.63566   0.00000  Uiso   1.00
C8     C     0.09743   0.50289   0.49979   0.00000  Uiso   1.00
C9     C     0.81035   0.50095   0.40222   0.00000  Uiso   1.00
C10    C     0.82918   0.50105   0.63631   0.00000  Uiso   1.00
C11    C     0.77783   0.50085   0.67240   0.00000  Uiso   1.00
C12    C     0.74166   0.50070   0.56766   0.00000  Uiso   1.00
C13    C     0.68894   0.50050   0.59779   0.00000  Uiso   1.00
C14    C     0.67011   0.50040   0.36371   0.00000  Uiso   1.00
C15    C     0.72146   0.50059   0.32761   0.00000  Uiso   1.00
C16    C     0.75763   0.50074   0.43235   0.00000  Uiso   1.00
C17    C     0.84447   0.50109   0.50015   0.00000  Uiso   1.00
C18    C     0.65481   0.50035   0.49986   0.00000  Uiso   1.00
H1     H     0.82220   0.50100   0.29759   0.00000  Uiso   1.00
H2     H     0.85781   0.50117   0.71350   0.00000  Uiso   1.00
H3     H     0.67709   0.50044   0.70242   0.00000  Uiso   1.00
H4     H     0.64148   0.50027   0.28653   0.00000  Uiso   1.00
C19    C     0.18826   0.50193   0.40204   0.00000  Uiso   1.00
C20    C     0.16902   0.50246   0.63607   0.00000  Uiso   1.00
C21    C     0.22066   0.50205   0.67232   0.00000  Uiso   1.00
C22    C     0.25719   0.50157   0.56768   0.00000  Uiso   1.00
C23    C     0.31021   0.50114   0.59797   0.00000  Uiso   1.00
C24    C     0.32945   0.50062   0.36394   0.00000  Uiso   1.00
C25    C     0.27782   0.50102   0.32770   0.00000  Uiso   1.00
C26    C     0.24128   0.50151   0.43233   0.00000  Uiso   1.00
C27    C     0.15380   0.50239   0.49987   0.00000  Uiso   1.00
C28    C     0.34467   0.50069   0.50014   0.00000  Uiso   1.00
H5     H     0.17646   0.50186   0.29737   0.00000  Uiso   1.00
H6     H     0.14012   0.50283   0.71318   0.00000  Uiso   1.00
H7     H     0.32201   0.50121   0.70264   0.00000  Uiso   1.00
H8     H     0.35836   0.50025   0.28685   0.00000  Uiso   1.00
C29    C     0.81011   0.87960   0.40221   0.00000  Uiso   1.00
C30    C     0.82928   0.84180   0.63626   0.00000  Uiso   1.00
C31    C     0.77793   0.94448   0.67245   0.00000  Uiso   1.00
C32    C     0.74157   0.01689   0.56777   0.00000  Uiso   1.00
C33    C     0.68884   0.12231   0.59799   0.00000  Uiso   1.00
C34    C     0.66967   0.16012   0.36394   0.00000  Uiso   1.00
C35    C     0.72103   0.05743   0.32776   0.00000  Uiso   1.00
C36    C     0.75738   0.98502   0.43244   0.00000  Uiso   1.00
C37    C     0.84440   0.81129   0.50008   0.00000  Uiso   1.00
C38    C     0.65455   0.19062   0.50012   0.00000  Uiso   1.00
H9     H     0.82185   0.85594   0.29756   0.00000  Uiso   1.00
H10    H     0.85805   0.78449   0.71341   0.00000  Uiso   1.00
H11    H     0.67710   0.14597   0.70265   0.00000  Uiso   1.00
H12    H     0.64090   0.21743   0.28681   0.00000  Uiso   1.00
C39    C     0.18960   0.12036   0.59784   0.00000  Uiso   1.00
C40    C     0.17023   0.15818   0.36380   0.00000  Uiso   1.00
C41    C     0.22164   0.05550   0.32760   0.00000  Uiso   1.00
C42    C     0.25813   0.98308   0.43227   0.00000  Uiso   1.00
C43    C     0.31092   0.87767   0.40203   0.00000  Uiso   1.00
C44    C     0.33029   0.83984   0.63608   0.00000  Uiso   1.00
C45    C     0.27888   0.94253   0.67227   0.00000  Uiso   1.00
C46    C     0.24239   0.01494   0.56761   0.00000  Uiso   1.00
C47    C     0.15518   0.18867   0.49998   0.00000  Uiso   1.00
C48    C     0.34534   0.80935   0.49989   0.00000  Uiso   1.00
H13    H     0.17794   0.14401   0.70250   0.00000  Uiso   1.00
H14    H     0.14137   0.21548   0.28666   0.00000  Uiso   1.00
H15    H     0.32258   0.85401   0.29738   0.00000  Uiso   1.00
H16    H     0.35916   0.78253   0.71320   0.00000  Uiso   1.00
O17    O     0.73594   0.50064   0.20358   0.00000  Uiso   1.00
Li1    Li    0.70373   0.50050   0.05518   0.00000  Uiso   1.00
O18    O     0.76334   0.50082   0.79643   0.00000  Uiso   1.00
Li2    Li    0.79556   0.50096   0.94482   0.00000  Uiso   1.00
O19    O     0.26339   0.50096   0.20362   0.00000  Uiso   1.00
Li3    Li    0.29599   0.50045   0.05532   0.00000  Uiso   1.00
O20    O     0.23508   0.50210   0.79639   0.00000  Uiso   1.00
Li4    Li    0.20248   0.50261   0.94469   0.00000  Uiso   1.00
O21    O     0.73536   0.02853   0.20370   0.00000  Uiso   1.00
Li5    Li    0.70291   0.09305   0.05536   0.00000  Uiso   1.00
O22    O     0.76360   0.97337   0.79650   0.00000  Uiso   1.00
Li6    Li    0.79606   0.90885   0.94484   0.00000  Uiso   1.00
O23    O     0.26462   0.97142   0.79633   0.00000  Uiso   1.00
Li7    Li    0.29723   0.90690   0.94466   0.00000  Uiso   1.00
O24    O     0.23590   0.02661   0.20354   0.00000  Uiso   1.00
Li8    Li    0.20330   0.09114   0.05522   0.00000  Uiso   1.00
