# generated using pymatgen
data_CuH21C21(N3O2)3
_symmetry_space_group_name_H-M   'P 1'
_cell_length_a   15.84940000
_cell_length_b   17.52180000
_cell_length_c   12.99020000
_cell_angle_alpha   89.91840000
_cell_angle_beta   87.67450000
_cell_angle_gamma   95.29000000
_symmetry_Int_Tables_number   1
_chemical_formula_structural   CuH21C21(N3O2)3
_chemical_formula_sum   'Cu2 H42 C42 N18 O12'
_cell_volume   3589.13684565
_cell_formula_units_Z   2
loop_
 _symmetry_equiv_pos_site_id
 _symmetry_equiv_pos_as_xyz
  1  'x, y, z'
loop_
 _atom_site_type_symbol
 _atom_site_label
 _atom_site_symmetry_multiplicity
 _atom_site_fract_x
 _atom_site_fract_y
 _atom_site_fract_z
 _atom_site_occupancy
  Cu  Cu1  1  0.41940000  0.49703000  0.50400000  1
  Cu  Cu2  1  0.58059000  0.50296000  0.49602000  1
  H  H1  1  0.99622000  0.43817000  0.58329000  1
  H  H2  1  0.00377000  0.56183000  0.41670000  1
  H  H3  1  0.40339000  0.99625000  0.50459000  1
  H  H4  1  0.59665000  0.00374000  0.49542000  1
  H  H5  1  0.37175000  0.49554000  0.15392000  1
  H  H6  1  0.63510000  0.50479000  0.21352000  1
  H  H7  1  0.62824000  0.50445000  0.84610000  1
  H  H8  1  0.36491000  0.49521000  0.78649000  1
  H  H9  1  0.34880000  0.35993000  0.61731000  1
  H  H10  1  0.27252000  0.38246000  0.72972000  1
  H  H11  1  0.05881000  0.40182000  0.70363000  1
  H  H12  1  0.13224000  0.32424000  0.66540000  1
  H  H13  1  0.36432000  0.62944000  0.39702000  1
  H  H14  1  0.28518000  0.60126000  0.29222000  1
  H  H15  1  0.07034000  0.56773000  0.33738000  1
  H  H16  1  0.15389000  0.64995000  0.36939000  1
  H  H17  1  0.92661000  0.37916000  0.59140000  1
  H  H18  1  0.84915000  0.40315000  0.70185000  1
  H  H19  1  0.63874000  0.42365000  0.67423000  1
  H  H20  1  0.71179000  0.34563000  0.63657000  1
  H  H21  1  0.94422000  0.65128000  0.36759000  1
  H  H22  1  0.86470000  0.62266000  0.26339000  1
  H  H23  1  0.64814000  0.58695000  0.31149000  1
  H  H24  1  0.73050000  0.67064000  0.34152000  1
  H  H25  1  0.32057000  0.31604000  0.55913000  1
  H  H26  1  0.27337000  0.24429000  0.46033000  1
  H  H27  1  0.30481000  0.05118000  0.45878000  1
  H  H28  1  0.26596000  0.12006000  0.56166000  1
  H  H29  1  0.65893000  0.32861000  0.44205000  1
  H  H30  1  0.69815000  0.25982000  0.54118000  1
  H  H31  1  0.64692000  0.06541000  0.54356000  1
  H  H32  1  0.69214000  0.13848000  0.44042000  1
  H  H33  1  0.35294000  0.93445000  0.55748000  1
  H  H34  1  0.30803000  0.86164000  0.45858000  1
  H  H35  1  0.34123000  0.67152000  0.45695000  1
  H  H36  1  0.30171000  0.74005000  0.55986000  1
  H  H37  1  0.69537000  0.94893000  0.44021000  1
  H  H38  1  0.73391000  0.87978000  0.53938000  1
  H  H39  1  0.67928000  0.68380000  0.54191000  1
  H  H40  1  0.72679000  0.75582000  0.43866000  1
  H  H41  1  0.33446000  0.53969000  0.11220000  1
  H  H42  1  0.67096000  0.55146000  0.88734000  1
  C  C1  1  0.49999000  0.49993000  0.69308000  1
  C  C2  1  0.50001000  0.50006000  0.30694000  1
  C  C3  1  0.50824000  0.64363000  0.49952000  1
  C  C4  1  0.49176000  0.35636000  0.50050000  1
  C  C5  1  0.25676000  0.53995000  0.44618000  1
  C  C6  1  0.16805000  0.53676000  0.45048000  1
  C  C7  1  0.11957000  0.48592000  0.51896000  1
  C  C8  1  0.16257000  0.43873000  0.58254000  1
  C  C9  1  0.25120000  0.44195000  0.57820000  1
  C  C10  1  0.02495000  0.47942000  0.52772000  1
  C  C11  1  0.97504000  0.52058000  0.47227000  1
  C  C12  1  0.83742000  0.56127000  0.41747000  1
  C  C13  1  0.88043000  0.51408000  0.48104000  1
  C  C14  1  0.83195000  0.46323000  0.54953000  1
  C  C15  1  0.74324000  0.46004000  0.55383000  1
  C  C16  1  0.74879000  0.55804000  0.42182000  1
  C  C17  1  0.48685000  0.27084000  0.50071000  1
  C  C18  1  0.56106000  0.23234000  0.49718000  1
  C  C19  1  0.55655000  0.15212000  0.49737000  1
  C  C20  1  0.47735000  0.10802000  0.50112000  1
  C  C21  1  0.40335000  0.14664000  0.50464000  1
  C  C22  1  0.40790000  0.22679000  0.50445000  1
  C  C23  1  0.46771000  0.02245000  0.50155000  1
  C  C24  1  0.53232000  0.97755000  0.49847000  1
  C  C25  1  0.59667000  0.85334000  0.49538000  1
  C  C26  1  0.52267000  0.89197000  0.49890000  1
  C  C27  1  0.44346000  0.84787000  0.50265000  1
  C  C28  1  0.43895000  0.76765000  0.50284000  1
  C  C29  1  0.51316000  0.72915000  0.49931000  1
  C  C30  1  0.59211000  0.77320000  0.49557000  1
  C  C31  1  0.43802000  0.49785000  0.12655000  1
  C  C32  1  0.58624000  0.50305000  0.15765000  1
  C  C33  1  0.60914000  0.50384000  0.05204000  1
  C  C34  1  0.54285000  0.50150000  0.98167000  1
  C  C35  1  0.56198000  0.50214000  0.87347000  1
  C  C36  1  0.41376000  0.49694000  0.84237000  1
  C  C37  1  0.39086000  0.49616000  0.94797000  1
  C  C38  1  0.45715000  0.49850000  0.01835000  1
  C  C39  1  0.50001000  0.50004000  0.19297000  1
  C  C40  1  0.49999000  0.49996000  0.80705000  1
  C  C41  1  0.29897000  0.49294000  0.98693000  1
  C  C42  1  0.70103000  0.50706000  0.01309000  1
  N  N1  1  0.29962000  0.49263000  0.50993000  1
  N  N2  1  0.70038000  0.50736000  0.49009000  1
  N  N3  1  0.29468000  0.39021000  0.64790000  1
  N  N4  1  0.11354000  0.38338000  0.65711000  1
  N  N5  1  0.30648000  0.59508000  0.37191000  1
  N  N6  1  0.12715000  0.58947000  0.37948000  1
  N  N7  1  0.87285000  0.41053000  0.62053000  1
  N  N8  1  0.69353000  0.40491000  0.62810000  1
  N  N9  1  0.88644000  0.61662000  0.34290000  1
  N  N10  1  0.70530000  0.60978000  0.35212000  1
  N  N11  1  0.32678000  0.26582000  0.50831000  1
  N  N12  1  0.31709000  0.10202000  0.50872000  1
  N  N13  1  0.64696000  0.27759000  0.49311000  1
  N  N14  1  0.63916000  0.11543000  0.49344000  1
  N  N15  1  0.36085000  0.88456000  0.50658000  1
  N  N16  1  0.35305000  0.72241000  0.50691000  1
  N  N17  1  0.68293000  0.89796000  0.49130000  1
  N  N18  1  0.67322000  0.73416000  0.49171000  1
  O  O1  1  0.42483000  0.49728000  0.63758000  1
  O  O2  1  0.42485000  0.49741000  0.36960000  1
  O  O3  1  0.43056000  0.59702000  0.50319000  1
  O  O4  1  0.41912000  0.39767000  0.50399000  1
  O  O5  1  0.56943000  0.40297000  0.49679000  1
  O  O6  1  0.58087000  0.60232000  0.49606000  1
  O  O7  1  0.57517000  0.50282000  0.36232000  1
  O  O8  1  0.57514000  0.50256000  0.63041000  1
  O  O9  1  0.27977000  0.52568000  0.07586000  1
  O  O10  1  0.24257000  0.46180000  0.93475000  1
  O  O11  1  0.72421000  0.54125000  0.92382000  1
  O  O12  1  0.75396000  0.47978000  0.06558000  1
