# Generated by REPEAT Assigner based on pymatgen
data_DB12-LONWIW_clean
_audit_creation_date              2022-05-24
_audit_creation_method            REPEAT_Assigner
_cell_length_a                    13.613200
_cell_length_b                    18.026100
_cell_length_c                    22.945000
_cell_angle_alpha                 69.574000
_cell_angle_beta                  88.899000
_cell_angle_gamma                 89.147000
_cell_volume                      5275.337470
_symmetry_space_group_name_H-M    P1
_symmetry_Int_Tables_number       1
loop_
    _symmetry_equiv_pos_site_id
    _symmetry_equiv_pos_as_xyz
    1  x,y,z
loop_
    _atom_site_type_symbol
    _atom_site_label
    _atom_site_fract_x
    _atom_site_fract_y
    _atom_site_fract_z
    _atom_type_partial_charge
    Mg  Mg1   0.911790  0.794260  0.397590  1.568951
    Mg  Mg2   0.124180  0.866810  0.250390  1.427056
    Mg  Mg3   0.342460  0.943760  0.105030  1.582494
    Mg  Mg4   0.607020  0.690530  0.611700  1.576173
    Mg  Mg5   0.376010  0.632360  0.750930  1.364025
    Mg  Mg6   0.147800  0.569770  0.890260  1.598454
    O   O1    0.046520  0.837850  0.404430  -0.896506
    O   O2    0.165760  0.824000  0.341090  -0.711173
    O   O3    0.471130  0.659290  0.593520  -0.923434
    O   O4    0.349440  0.667050  0.658190  -0.696453
    O   O5    0.340430  0.781340  0.381770  -0.628851
    H   H1    0.297000  0.794000  0.357400  0.461648
    O   O6    0.176360  0.718240  0.616610  -0.640141
    H   H2    0.218000  0.701000  0.640300  0.473690
    O   O7    0.876270  0.895130  0.324910  -0.880789
    O   O8    0.003730  0.932610  0.258540  -0.752682
    O   O9    0.735730  0.290410  0.250390  -0.769477
    O   O10   0.861490  0.326130  0.182310  -0.940219
    O   O11   0.024050  0.077980  0.187950  -0.594306
    H   H3    0.040000  0.030000  0.207500  0.444115
    O   O12   0.712900  0.142900  0.320630  -0.556468
    H   H4    0.709000  0.189000  0.304800  0.459994
    O   O13   0.046620  0.268990  0.656760  -0.991698
    O   O14   0.957310  0.229050  0.744590  -0.762763
    O   O15   0.286940  0.540390  0.756170  -0.695340
    O   O16   0.201190  0.498570  0.845010  -0.976183
    O   O17   0.986120  0.286310  0.830880  -0.569682
    H   H5    0.960000  0.260000  0.808400  0.444959
    O   O18   0.256080  0.484500  0.669270  -0.589521
    H   H6    0.285000  0.509000  0.689900  0.426137
    O   O19   0.203400  0.963850  0.246780  -0.747323
    O   O20   0.292710  0.004160  0.159060  -1.001878
    O   O21   0.446620  0.234820  0.345640  -0.953145
    O   O22   0.533390  0.275080  0.257020  -0.685935
    O   O23   0.234600  0.020260  0.333410  -0.567451
    H   H7    0.202000  0.992000  0.313900  0.447999
    O   O24   0.503930  0.218200  0.171070  -0.571587
    H   H8    0.529000  0.245000  0.192800  0.423206
    O   O25   0.087690  0.909340  0.158550  -0.720963
    O   O26   0.209190  0.903260  0.093400  -0.895895
    O   O27   0.912880  0.951800  0.117180  -0.632368
    H   H9    0.956000  0.940000  0.139900  0.481940
    O   O28   0.404390  0.599850  0.843750  -0.719700
    O   O29   0.284490  0.596270  0.912620  -0.891470
    O   O30   0.580540  0.548620  0.881050  -0.640774
    H   H10   0.538000  0.558000  0.859700  0.510496
    O   O31   0.622380  0.593610  0.691410  -0.923938
    O   O32   0.489190  0.556340  0.752740  -0.779372
    O   O33   0.757480  0.198710  0.760900  -0.768690
    O   O34   0.626600  0.161160  0.824580  -0.899279
    O   O35   0.463020  0.408830  0.820980  -0.564120
    H   H11   0.443000  0.457000  0.798900  0.434050
    O   O36   0.790350  0.347280  0.699680  -0.610266
    H   H12   0.797000  0.298000  0.713800  0.470529
    C   C1    0.131600  0.817980  0.394320  1.074254
    C   C2    0.199100  0.783790  0.447650  -0.480623
    C   C3    0.297800  0.767040  0.439140  0.418388
    C   C4    0.355300  0.732700  0.491040  -0.089872
    H   H13   0.420900  0.721100  0.485400  0.111042
    C   C5    0.318100  0.715080  0.551320  -0.480047
    C   C6    0.219400  0.733020  0.559660  0.399416
    C   C7    0.161700  0.767380  0.507910  -0.087359
    H   H14   0.096400  0.779800  0.513400  0.098789
    C   C8    0.385000  0.677740  0.604660  1.132079
    C   C9    0.928000  0.946300  0.285450  1.088111
    C   C10   0.898100  0.031650  0.268460  -0.426192
    C   C11   0.946800  0.092000  0.221480  0.355912
    C   C12   0.917000  0.169800  0.208190  -0.137836
    H   H15   0.949900  0.209700  0.177100  0.153129
    C   C13   0.839400  0.189950  0.240040  -0.377093
    C   C14   0.790100  0.129700  0.287330  0.303576
    C   C15   0.821200  0.052100  0.300920  -0.087827
    H   H16   0.789700  0.012300  0.332800  0.123969
    C   C16   0.810600  0.275900  0.222520  1.083175
    C   C17   0.022200  0.272360  0.708500  1.110823
    C   C18   0.071900  0.330580  0.730640  -0.379207
    C   C19   0.052700  0.333900  0.789950  0.300668
    C   C20   0.104000  0.387900  0.808920  -0.078393
    H   H17   0.092600  0.389400  0.848600  0.132718
    C   C21   0.171900  0.439380  0.769850  -0.414786
    C   C22   0.190600  0.436050  0.710440  0.325298
    C   C23   0.139500  0.383200  0.691630  -0.108421
    H   H18   0.150200  0.382600  0.651700  0.143666
    C   C24   0.223400  0.496840  0.792530  1.065753
    C   C25   0.268200  0.006900  0.210920  1.109459
    C   C26   0.318600  0.065010  0.233020  -0.385233
    C   C27   0.300600  0.068470  0.292560  0.278433
    C   C28   0.351600  0.122140  0.310840  -0.059362
    H   H19   0.340100  0.124100  0.350400  0.120250
    C   C29   0.419900  0.173560  0.271550  -0.413218
    C   C30   0.437800  0.170600  0.212210  0.325412
    C   C31   0.386200  0.116600  0.193800  -0.100200
    H   H20   0.397300  0.115000  0.154100  0.137354
    C   C32   0.470000  0.231980  0.293700  1.057440
    C   C33   0.124100  0.921770  0.104820  1.126804
    C   C34   0.058300  0.961590  0.051650  -0.523262
    C   C35   0.958200  0.974900  0.060010  0.416289
    C   C36   0.901400  0.012390  0.008750  -0.054203
    H   H21   0.834800  0.020600  0.014400  0.080029
    C   C37   0.370500  0.582360  0.898470  1.128301
    C   C38   0.439200  0.540910  0.950100  -0.493656
    C   C39   0.538000  0.525720  0.939030  0.369946
    C   C40   0.403100  0.514910  0.011050  -0.044889
    H   H22   0.337800  0.525100  0.018500  0.089940
    C   C41   0.568400  0.542550  0.728780  1.102739
    C   C42   0.598200  0.457150  0.746820  -0.394680
    C   C43   0.544600  0.395900  0.790270  0.320244
    C   C44   0.573900  0.318110  0.802580  -0.083676
    H   H23   0.538200  0.277800  0.831500  0.125035
    C   C45   0.654900  0.298330  0.773080  -0.432038
    C   C46   0.709300  0.359600  0.730490  0.354756
    C   C47   0.680100  0.437360  0.718390  -0.123723
    H   H24   0.716600  0.477700  0.690200  0.136653
    C   C48   0.681600  0.212720  0.787680  1.109768
    Mg  Mg7   0.088210  0.205740  0.602410  1.569007
    Mg  Mg8   0.875820  0.133190  0.749610  1.426969
    Mg  Mg9   0.657540  0.056240  0.894970  1.582440
    Mg  Mg10  0.392980  0.309470  0.388300  1.576122
    Mg  Mg11  0.623990  0.367640  0.249070  1.364047
    Mg  Mg12  0.852200  0.430230  0.109740  1.598561
    O   O37   0.953480  0.162150  0.595570  -0.896627
    O   O38   0.834240  0.176000  0.658910  -0.711457
    O   O39   0.528870  0.340710  0.406480  -0.923347
    O   O40   0.650560  0.332950  0.341810  -0.696419
    O   O41   0.659570  0.218660  0.618230  -0.628900
    H   H25   0.703000  0.206000  0.642600  0.461727
    O   O42   0.823640  0.281760  0.383390  -0.640164
    H   H26   0.782000  0.299000  0.359700  0.473703
    O   O43   0.123730  0.104870  0.675090  -0.880820
    O   O44   0.996270  0.067390  0.741460  -0.752488
    O   O45   0.264270  0.709590  0.749610  -0.769390
    O   O46   0.138510  0.673870  0.817690  -0.940062
    O   O47   0.975950  0.922020  0.812050  -0.594202
    H   H27   0.960000  0.970000  0.792500  0.443947
    O   O48   0.287100  0.857100  0.679370  -0.556484
    H   H28   0.291000  0.811000  0.695200  0.460008
    O   O49   0.953380  0.731010  0.343240  -0.991615
    O   O50   0.042690  0.770950  0.255410  -0.762497
    O   O51   0.713060  0.459610  0.243830  -0.695306
    O   O52   0.798810  0.501430  0.154990  -0.976168
    O   O53   0.013880  0.713690  0.169120  -0.569613
    H   H29   0.040000  0.740000  0.191600  0.444834
    O   O54   0.743920  0.515500  0.330730  -0.589508
    H   H30   0.715000  0.491000  0.310100  0.426145
    O   O55   0.796600  0.036150  0.753220  -0.747168
    O   O56   0.707290  0.995840  0.840940  -1.001832
    O   O57   0.553380  0.765180  0.654360  -0.953181
    O   O58   0.466610  0.724920  0.742980  -0.685975
    O   O59   0.765400  0.979740  0.666590  -0.567444
    H   H31   0.798000  0.008000  0.686100  0.447965
    O   O60   0.496070  0.781800  0.828930  -0.571593
    H   H32   0.471000  0.755000  0.807200  0.423227
    O   O61   0.912310  0.090660  0.841450  -0.720842
    O   O62   0.790810  0.096740  0.906600  -0.895802
    O   O63   0.087120  0.048200  0.882820  -0.632355
    H   H33   0.044000  0.060000  0.860100  0.481922
    O   O64   0.595610  0.400150  0.156250  -0.719747
    O   O65   0.715510  0.403730  0.087380  -0.891577
    O   O66   0.419460  0.451380  0.118950  -0.640772
    H   H34   0.462000  0.442000  0.140300  0.510500
    O   O67   0.377620  0.406390  0.308590  -0.923890
    O   O68   0.510810  0.443660  0.247260  -0.779411
    O   O69   0.242520  0.801290  0.239100  -0.768731
    O   O70   0.373400  0.838840  0.175420  -0.899346
    O   O71   0.536980  0.591170  0.179020  -0.564153
    H   H35   0.557000  0.543000  0.201100  0.434081
    O   O72   0.209650  0.652720  0.300320  -0.610270
    H   H36   0.203000  0.702000  0.286200  0.470405
    C   C49   0.868400  0.182020  0.605680  1.074644
    C   C50   0.800900  0.216210  0.552350  -0.480869
    C   C51   0.702200  0.232960  0.560860  0.418505
    C   C52   0.644700  0.267300  0.508960  -0.089963
    H   H37   0.579100  0.278900  0.514600  0.111062
    C   C53   0.681900  0.284920  0.448680  -0.479937
    C   C54   0.780600  0.266980  0.440340  0.399398
    C   C55   0.838300  0.232620  0.492090  -0.087271
    H   H38   0.903600  0.220200  0.486600  0.098764
    C   C56   0.615000  0.322260  0.395340  1.131930
    C   C57   0.072000  0.053700  0.714550  1.088052
    C   C58   0.101900  0.968350  0.731540  -0.426184
    C   C59   0.053200  0.908000  0.778520  0.355893
    C   C60   0.083000  0.830200  0.791810  -0.137872
    H   H39   0.050100  0.790300  0.822900  0.153117
    C   C61   0.160600  0.810050  0.759960  -0.376981
    C   C62   0.209900  0.870300  0.712670  0.303544
    C   C63   0.178800  0.947900  0.699080  -0.087807
    H   H40   0.210300  0.987700  0.667200  0.123974
    C   C64   0.189400  0.724100  0.777480  1.082941
    C   C65   0.977800  0.727640  0.291500  1.110587
    C   C66   0.928100  0.669420  0.269360  -0.379182
    C   C67   0.947300  0.666100  0.210050  0.300670
    C   C68   0.896000  0.612100  0.191080  -0.078418
    H   H41   0.907400  0.610600  0.151400  0.132701
    C   C69   0.828100  0.560620  0.230150  -0.414697
    C   C70   0.809400  0.563950  0.289560  0.325197
    C   C71   0.860500  0.616800  0.308370  -0.108325
    H   H42   0.849800  0.617400  0.348300  0.143637
    C   C72   0.776600  0.503160  0.207470  1.065674
    C   C73   0.731800  0.993100  0.789080  1.109364
    C   C74   0.681400  0.934990  0.766980  -0.385232
    C   C75   0.699400  0.931530  0.707440  0.278450
    C   C76   0.648400  0.877860  0.689160  -0.059383
    H   H43   0.659900  0.875900  0.649600  0.120261
    C   C77   0.580100  0.826440  0.728450  -0.413213
    C   C78   0.562200  0.829400  0.787790  0.325389
    C   C79   0.613800  0.883400  0.806200  -0.100174
    H   H44   0.602700  0.885000  0.845900  0.137342
    C   C80   0.530000  0.768020  0.706300  1.057484
    C   C81   0.875900  0.078230  0.895180  1.126610
    C   C82   0.941700  0.038410  0.948350  -0.523141
    C   C83   0.041800  0.025100  0.939990  0.416233
    C   C84   0.098600  0.987610  0.991250  -0.054133
    H   H45   0.165200  0.979400  0.985600  0.080008
    C   C85   0.629500  0.417640  0.101530  1.128444
    C   C86   0.560800  0.459090  0.049900  -0.493762
    C   C87   0.462000  0.474280  0.060970  0.369995
    C   C88   0.596900  0.485090  0.988950  -0.044818
    H   H46   0.662200  0.474900  0.981500  0.089922
    C   C89   0.431600  0.457450  0.271220  1.102710
    C   C90   0.401800  0.542850  0.253180  -0.394649
    C   C91   0.455400  0.604100  0.209730  0.320258
    C   C92   0.426100  0.681890  0.197420  -0.083672
    H   H47   0.461800  0.722200  0.168500  0.125045
    C   C93   0.345100  0.701670  0.226920  -0.432139
    C   C94   0.290700  0.640400  0.269510  0.354924
    C   C95   0.319900  0.562640  0.281610  -0.123840
    H   H48   0.283400  0.522300  0.309800  0.136685
    C   C96   0.318400  0.787280  0.212320  1.109898
