# Generated by REPEAT Assigner based on pymatgen
data_DB12-XALXUF01_clean
_audit_creation_date              2022-05-24
_audit_creation_method            REPEAT_Assigner
_cell_length_a                    26.777800
_cell_length_b                    26.777800
_cell_length_c                    26.777800
_cell_angle_alpha                 60.203100
_cell_angle_beta                  89.647900
_cell_angle_gamma                 119.797000
_cell_volume                      13618.569174
_symmetry_space_group_name_H-M    P1
_symmetry_Int_Tables_number       1
loop_
    _symmetry_equiv_pos_site_id
    _symmetry_equiv_pos_as_xyz
    1  x,y,z
loop_
    _atom_site_type_symbol
    _atom_site_label
    _atom_site_fract_x
    _atom_site_fract_y
    _atom_site_fract_z
    _atom_type_partial_charge
    Cu  Cu1   0.768410  0.295300  0.181550  0.960611
    Cu  Cu2   0.858740  0.390500  0.076040  0.928888
    Cu  Cu3   0.523150  0.704700  0.526890  0.953498
    Cu  Cu4   0.533460  0.609500  0.531760  0.933225
    Cu  Cu5   0.473110  0.949960  0.231590  0.954752
    Cu  Cu6   0.468240  0.934780  0.141260  0.928570
    Cu  Cu7   0.818450  0.050040  0.476850  0.949176
    Cu  Cu8   0.923960  0.065220  0.466540  0.926281
    Cu  Cu9   0.231590  0.704700  0.818450  0.960621
    Cu  Cu10  0.141260  0.609500  0.923960  0.928913
    Cu  Cu11  0.476850  0.295300  0.473110  0.953497
    Cu  Cu12  0.466540  0.390500  0.468240  0.933209
    Cu  Cu13  0.526890  0.050040  0.768410  0.954710
    Cu  Cu14  0.531760  0.065220  0.858740  0.928548
    Cu  Cu15  0.181550  0.949960  0.523150  0.949221
    Cu  Cu16  0.076040  0.934780  0.533460  0.926295
    Cu  Cu17  0.794720  0.342180  0.452540  0.956196
    Cu  Cu18  0.891660  0.453730  0.437930  0.932018
    Cu  Cu19  0.205280  0.657820  0.547460  0.956477
    Cu  Cu20  0.108340  0.546270  0.562070  0.932209
    Cu  Cu21  0.452540  0.247260  0.205280  0.948684
    Cu  Cu22  0.437930  0.329590  0.108340  0.931833
    Cu  Cu23  0.547460  0.752740  0.794720  0.948659
    Cu  Cu24  0.562070  0.670410  0.891660  0.931846
    H   H1    0.059700  0.635000  0.097500  0.344812
    H   H2    0.288100  0.808700  0.074200  0.350953
    H   H3    0.114800  0.627200  0.292200  0.347700
    H   H4    0.992300  0.563000  0.249100  0.151117
    H   H5    0.835100  0.401500  0.270200  0.125560
    H   H6    0.976000  0.537000  0.113400  0.166293
    H   H7    0.206400  0.718900  0.012100  0.195050
    H   H8    0.340900  0.860500  0.849600  0.115677
    H   H9    0.354800  0.895600  0.978800  0.166569
    H   H10   0.269500  0.769900  0.209800  0.136942
    H   H11   0.300600  0.769100  0.357700  0.128967
    H   H12   0.135600  0.624800  0.372800  0.164925
    H   H13   0.267500  0.365000  0.575300  0.343068
    H   H14   0.117100  0.191300  0.520600  0.348782
    H   H15   0.080600  0.372800  0.512400  0.350804
    H   H16   0.187900  0.437000  0.570700  0.150219
    H   H17   0.328300  0.598500  0.566400  0.124712
    H   H18   0.349600  0.463000  0.561000  0.179419
    H   H19   0.269000  0.281100  0.512500  0.192249
    H   H20   0.289900  0.139500  0.519600  0.115292
    H   H21   0.125600  0.104400  0.540800  0.173278
    H   H22   0.020300  0.230100  0.500400  0.138721
    H   H23   0.873200  0.230900  0.468500  0.136675
    H   H24   0.002400  0.375200  0.489200  0.161145
    H   H25   0.424700  0.157200  0.940300  0.345788
    H   H26   0.479400  0.362300  0.711900  0.350034
    H   H27   0.487600  0.407000  0.885200  0.352115
    H   H28   0.429300  0.241400  0.007700  0.151759
    H   H29   0.433600  0.105300  0.164900  0.131256
    H   H30   0.439000  0.089400  0.024000  0.169154
    H   H31   0.487500  0.218500  0.793600  0.197316
    H   H32   0.480400  0.190500  0.659100  0.113730
    H   H33   0.459200  0.333600  0.645200  0.177166
    H   H34   0.499600  0.479300  0.730500  0.136606
    H   H35   0.531500  0.658300  0.699400  0.130295
    H   H36   0.510800  0.508400  0.864400  0.158907
    H   H37   0.902500  0.842800  0.732500  0.339824
    H   H38   0.925800  0.637700  0.882900  0.346327
    H   H39   0.707800  0.593000  0.919400  0.353188
    H   H40   0.750900  0.758600  0.812100  0.150580
    H   H41   0.729800  0.894700  0.671700  0.120736
    H   H42   0.886600  0.910600  0.650400  0.170541
    H   H43   0.987900  0.781500  0.731000  0.184335
    H   H44   0.150400  0.809500  0.710100  0.117442
    H   H45   0.021200  0.666400  0.874400  0.168882
    H   H46   0.790200  0.520700  0.979700  0.143605
    H   H47   0.642300  0.341700  0.126800  0.125944
    H   H48   0.627200  0.491600  0.997600  0.166133
    H   H49   0.940300  0.365000  0.902500  0.344800
    H   H50   0.711900  0.191300  0.925800  0.350923
    H   H51   0.885200  0.372800  0.707800  0.347707
    H   H52   0.007700  0.437000  0.750900  0.151138
    H   H53   0.164900  0.598500  0.729800  0.125566
    H   H54   0.024000  0.463000  0.886600  0.166272
    H   H55   0.793600  0.281100  0.987900  0.195047
    H   H56   0.659100  0.139500  0.150400  0.115666
    H   H57   0.645200  0.104400  0.021200  0.166552
    H   H58   0.730500  0.230100  0.790200  0.136945
    H   H59   0.699400  0.230900  0.642300  0.129035
    H   H60   0.864400  0.375200  0.627200  0.164959
    H   H61   0.732500  0.635000  0.424700  0.343073
    H   H62   0.882900  0.808700  0.479400  0.348814
    H   H63   0.919400  0.627200  0.487600  0.350795
    H   H64   0.812100  0.563000  0.429300  0.150208
    H   H65   0.671700  0.401500  0.433600  0.124711
    H   H66   0.650400  0.537000  0.439000  0.179443
    H   H67   0.731000  0.718900  0.487500  0.192248
    H   H68   0.710100  0.860500  0.480400  0.115303
    H   H69   0.874400  0.895600  0.459200  0.173294
    H   H70   0.979700  0.769900  0.499600  0.138712
    H   H71   0.126800  0.769100  0.531500  0.136607
    H   H72   0.997600  0.624800  0.510800  0.161116
    H   H73   0.575300  0.842800  0.059700  0.345811
    H   H74   0.520600  0.637700  0.288100  0.350031
    H   H75   0.512400  0.593000  0.114800  0.352149
    H   H76   0.570700  0.758600  0.992300  0.151739
    H   H77   0.566400  0.894700  0.835100  0.131164
    H   H78   0.561000  0.910600  0.976000  0.169102
    H   H79   0.512500  0.781500  0.206400  0.197330
    H   H80   0.519600  0.809500  0.340900  0.113743
    H   H81   0.540800  0.666400  0.354800  0.177204
    H   H82   0.500400  0.520700  0.269500  0.136648
    H   H83   0.468500  0.341700  0.300600  0.130305
    H   H84   0.489200  0.491600  0.135600  0.158900
    H   H85   0.097500  0.157200  0.267500  0.339797
    H   H86   0.074200  0.362300  0.117100  0.346328
    H   H87   0.292200  0.407000  0.080600  0.353197
    H   H88   0.249100  0.241400  0.187900  0.150599
    H   H89   0.270200  0.105300  0.328300  0.120817
    H   H90   0.113400  0.089400  0.349600  0.170590
    H   H91   0.012100  0.218500  0.269000  0.184316
    H   H92   0.849600  0.190500  0.289900  0.117429
    H   H93   0.978800  0.333600  0.125600  0.168842
    H   H94   0.209800  0.479300  0.020300  0.143579
    H   H95   0.357700  0.658300  0.873200  0.125941
    H   H96   0.372800  0.508400  0.002400  0.166153
    C   C1    0.104600  0.653600  0.147000  0.851593
    C   C2    0.204260  0.736200  0.108940  0.799719
    C   C3    0.153340  0.676500  0.207960  0.783544
    C   C4    0.994710  0.558920  0.175610  0.365474
    C   C5    0.969440  0.537710  0.233870  -0.199771
    C   C6    0.910060  0.478720  0.269080  -0.096447
    C   C7    0.875060  0.441010  0.246430  -0.072748
    C   C8    0.900310  0.462900  0.188250  -0.089489
    C   C9    0.959590  0.522010  0.152820  -0.253440
    C   C10   0.883610  0.452260  0.333790  0.726987
    C   C11   0.865760  0.421140  0.164500  0.757828
    C   C12   0.277010  0.803400  0.005390  0.392323
    C   C13   0.244290  0.761190  0.986100  -0.238878
    C   C14   0.268730  0.782580  0.927010  -0.108734
    C   C15   0.324780  0.845850  0.888930  -0.073409
    C   C16   0.357200  0.887520  0.908240  -0.057430
    C   C17   0.333150  0.866820  0.966070  -0.281298
    C   C18   0.235670  0.735300  0.907170  0.763928
    C   C19   0.419770  0.953760  0.869210  0.723950
    C   C20   0.195720  0.692740  0.286820  0.378280
    C   C21   0.255590  0.750590  0.251200  -0.176609
    C   C22   0.294760  0.779650  0.277250  -0.113225
    C   C23   0.274530  0.749830  0.340060  -0.099421
    C   C24   0.214710  0.690920  0.375290  -0.064044
    C   C25   0.175800  0.663470  0.348870  -0.278466
    C   C26   0.359430  0.840190  0.241240  0.736409
    C   C27   0.194000  0.658700  0.441760  0.748994
    C   C28   0.199400  0.346400  0.549000  0.845636
    C   C29   0.154860  0.263800  0.531940  0.804040
    C   C30   0.115540  0.323500  0.523160  0.782118
    C   C31   0.265470  0.441080  0.564210  0.368009
    C   C32   0.228420  0.462290  0.568270  -0.202689
    C   C33   0.252200  0.521280  0.568660  -0.069274
    C   C34   0.312560  0.558990  0.565950  -0.101953
    C   C35   0.348850  0.537100  0.562590  -0.060141
    C   C36   0.325170  0.477990  0.562420  -0.285952
    C   C37   0.213950  0.547740  0.568650  0.714894
    C   C38   0.414360  0.578860  0.555380  0.759220
    C   C39   0.191210  0.196600  0.526390  0.405670
    C   C40   0.252710  0.238810  0.516900  -0.241387
    C   C41   0.290410  0.217420  0.513850  -0.119580
    C   C42   0.265220  0.154150  0.521070  -0.073048
    C   C43   0.204240  0.112480  0.530320  -0.049845
    C   C44   0.167110  0.133180  0.533670  -0.296794
    C   C45   0.357530  0.264700  0.499630  0.771648
    C   C46   0.177030  0.046240  0.533990  0.728651
    C   C47   0.020440  0.307260  0.497020  0.368834
    C   C48   0.998210  0.249410  0.495000  -0.170698
    C   C49   0.943100  0.220350  0.484890  -0.113713
    C   C50   0.910110  0.250170  0.475300  -0.093995
    C   C51   0.933790  0.309080  0.476210  -0.080135
    C   C52   0.987660  0.336530  0.487670  -0.273156
    C   C53   0.918570  0.159810  0.480760  0.730608
    C   C54   0.899540  0.341300  0.464700  0.765525
    C   C55   0.451000  0.251600  0.895400  0.855249
    C   C56   0.468060  0.313200  0.795740  0.807524
    C   C57   0.476840  0.361300  0.846660  0.779325
    C   C58   0.435790  0.170320  0.005290  0.368248
    C   C59   0.431730  0.203310  0.030560  -0.201220
    C   C60   0.431340  0.179140  0.089940  -0.082729
    C   C61   0.434050  0.121490  0.124940  -0.095808
    C   C62   0.437410  0.088560  0.099690  -0.074953
    C   C63   0.437580  0.112410  0.040410  -0.262469
    C   C64   0.431350  0.217400  0.116390  0.718084
    C   C65   0.444620  0.030260  0.134240  0.755348
    C   C66   0.473610  0.282400  0.722990  0.400077
    C   C67   0.483100  0.230390  0.755710  -0.251806
    C   C68   0.486150  0.195740  0.731270  -0.097770
    C   C69   0.478930  0.213710  0.675220  -0.080486
    C   C70   0.469680  0.265440  0.642800  -0.036187
    C   C71   0.466330  0.299220  0.666850  -0.307047
    C   C72   0.500370  0.142840  0.764330  0.760108
    C   C73   0.466010  0.288980  0.580230  0.719970
    C   C74   0.502980  0.482540  0.804280  0.371301
    C   C75   0.505000  0.506790  0.744410  -0.173259
    C   C76   0.515110  0.572010  0.705240  -0.124650
    C   C77   0.524700  0.614590  0.725470  -0.092227
    C   C78   0.523790  0.590000  0.785290  -0.070477
    C   C79   0.512330  0.524670  0.824200  -0.266267
    C   C80   0.519240  0.600670  0.640570  0.754209
    C   C81   0.535300  0.635760  0.806000  0.748299
    C   C82   0.853000  0.748400  0.800600  0.850553
    C   C83   0.891060  0.686800  0.845140  0.800869
    C   C84   0.792040  0.638700  0.884460  0.787855
    C   C85   0.824390  0.829680  0.734530  0.369310
    C   C86   0.766130  0.796690  0.771580  -0.204343
    C   C87   0.730920  0.820860  0.747800  -0.088513
    C   C88   0.753570  0.878510  0.687440  -0.078069
    C   C89   0.811750  0.911440  0.651150  -0.089600
    C   C90   0.847180  0.887590  0.674830  -0.261095
    C   C91   0.666210  0.782600  0.786050  0.730020
    C   C92   0.835500  0.969740  0.585640  0.759666
    C   C93   0.994610  0.717600  0.808790  0.384876
    C   C94   0.013900  0.769610  0.747290  -0.217458
    C   C95   0.072990  0.804260  0.709590  -0.133392
    C   C96   0.111070  0.786290  0.734780  -0.071427
    C   C97   0.091760  0.734560  0.795760  -0.044294
    C   C98   0.033930  0.700780  0.832890  -0.285582
    C   C99   0.092830  0.857160  0.642470  0.767560
    C   C100  0.130790  0.711020  0.822970  0.720524
    C   C101  0.713180  0.517460  0.979560  0.377016
    C   C102  0.748800  0.493210  0.001790  -0.183156
    C   C103  0.722750  0.427990  0.056900  -0.109653
    C   C104  0.659940  0.385410  0.089890  -0.082800
    C   C105  0.624710  0.410000  0.066210  -0.081361
    C   C106  0.651130  0.475330  0.012340  -0.278535
    C   C107  0.758760  0.399330  0.081430  0.732087
    C   C108  0.558240  0.364240  0.100460  0.755220
    C   C109  0.895400  0.346400  0.853000  0.851627
    C   C110  0.795740  0.263800  0.891060  0.799702
    C   C111  0.846660  0.323500  0.792040  0.783495
    C   C112  0.005290  0.441080  0.824390  0.365351
    C   C113  0.030560  0.462290  0.766130  -0.199704
    C   C114  0.089940  0.521280  0.730920  -0.096579
    C   C115  0.124940  0.558990  0.753570  -0.072602
    C   C116  0.099690  0.537100  0.811750  -0.089728
    C   C117  0.040410  0.477990  0.847180  -0.253223
    C   C118  0.116390  0.547740  0.666210  0.727173
    C   C119  0.134240  0.578860  0.835500  0.757974
    C   C120  0.722990  0.196600  0.994610  0.392300
    C   C121  0.755710  0.238810  0.013900  -0.238863
    C   C122  0.731270  0.217420  0.072990  -0.108763
    C   C123  0.675220  0.154150  0.111070  -0.073359
    C   C124  0.642800  0.112480  0.091760  -0.057491
    C   C125  0.666850  0.133180  0.033930  -0.281252
    C   C126  0.764330  0.264700  0.092830  0.763935
    C   C127  0.580230  0.046240  0.130790  0.723981
    C   C128  0.804280  0.307260  0.713180  0.378325
    C   C129  0.744410  0.249410  0.748800  -0.176677
    C   C130  0.705240  0.220350  0.722750  -0.113105
    C   C131  0.725470  0.250170  0.659940  -0.099725
    C   C132  0.785290  0.309080  0.624710  -0.063546
    C   C133  0.824200  0.336530  0.651130  -0.278702
    C   C134  0.640570  0.159810  0.758760  0.736364
    C   C135  0.806000  0.341300  0.558240  0.748595
    C   C136  0.800600  0.653600  0.451000  0.845571
    C   C137  0.845140  0.736200  0.468060  0.804052
    C   C138  0.884460  0.676500  0.476840  0.782146
    C   C139  0.734530  0.558920  0.435790  0.368137
    C   C140  0.771580  0.537710  0.431730  -0.202779
    C   C141  0.747800  0.478720  0.431340  -0.069121
    C   C142  0.687440  0.441010  0.434050  -0.102118
    C   C143  0.651150  0.462900  0.437410  -0.059888
    C   C144  0.674830  0.522010  0.437580  -0.286172
    C   C145  0.786050  0.452260  0.431350  0.714698
    C   C146  0.585640  0.421140  0.444620  0.759074
    C   C147  0.808790  0.803400  0.473610  0.405686
    C   C148  0.747290  0.761190  0.483100  -0.241398
    C   C149  0.709590  0.782580  0.486150  -0.119544
    C   C150  0.734780  0.845850  0.478930  -0.073108
    C   C151  0.795760  0.887520  0.469680  -0.049775
    C   C152  0.832890  0.866820  0.466330  -0.296838
    C   C153  0.642470  0.735300  0.500370  0.771633
    C   C154  0.822970  0.953760  0.466010  0.728612
    C   C155  0.979560  0.692740  0.502980  0.368794
    C   C156  0.001790  0.750590  0.505000  -0.170628
    C   C157  0.056900  0.779650  0.515110  -0.113822
    C   C158  0.089890  0.749830  0.524700  -0.093690
    C   C159  0.066210  0.690920  0.523790  -0.080657
    C   C160  0.012340  0.663470  0.512330  -0.272919
    C   C161  0.081430  0.840190  0.519240  0.730638
    C   C162  0.100460  0.658700  0.535300  0.765953
    C   C163  0.549000  0.748400  0.104600  0.855261
    C   C164  0.531940  0.686800  0.204260  0.807558
    C   C165  0.523160  0.638700  0.153340  0.779384
    C   C166  0.564210  0.829680  0.994710  0.368184
    C   C167  0.568270  0.796690  0.969440  -0.201145
    C   C168  0.568660  0.820860  0.910060  -0.082810
    C   C169  0.565950  0.878510  0.875060  -0.095643
    C   C170  0.562590  0.911440  0.900310  -0.075069
    C   C171  0.562420  0.887590  0.959590  -0.262376
    C   C172  0.568650  0.782600  0.883610  0.718073
    C   C173  0.555380  0.969740  0.865760  0.755333
    C   C174  0.526390  0.717600  0.277010  0.400115
    C   C175  0.516900  0.769610  0.244290  -0.251847
    C   C176  0.513850  0.804260  0.268730  -0.097715
    C   C177  0.521070  0.786290  0.324780  -0.080524
    C   C178  0.530320  0.734560  0.357200  -0.036145
    C   C179  0.533670  0.700780  0.333150  -0.307113
    C   C180  0.499630  0.857160  0.235670  0.760068
    C   C181  0.533990  0.711020  0.419770  0.719963
    C   C182  0.497020  0.517460  0.195720  0.371399
    C   C183  0.495000  0.493210  0.255590  -0.173328
    C   C184  0.484890  0.427990  0.294760  -0.124633
    C   C185  0.475300  0.385410  0.274530  -0.092246
    C   C186  0.476210  0.410000  0.214710  -0.070485
    C   C187  0.487670  0.475330  0.175800  -0.266274
    C   C188  0.480760  0.399330  0.359430  0.754248
    C   C189  0.464700  0.364240  0.194000  0.748304
    C   C190  0.147000  0.251600  0.199400  0.850520
    C   C191  0.108940  0.313200  0.154860  0.800818
    C   C192  0.207960  0.361300  0.115540  0.787853
    C   C193  0.175610  0.170320  0.265470  0.369373
    C   C194  0.233870  0.203310  0.228420  -0.204414
    C   C195  0.269080  0.179140  0.252200  -0.088447
    C   C196  0.246430  0.121490  0.312560  -0.078209
    C   C197  0.188250  0.088560  0.348850  -0.089494
    C   C198  0.152820  0.112410  0.325170  -0.261184
    C   C199  0.333790  0.217400  0.213950  0.730036
    C   C200  0.164500  0.030260  0.414360  0.759675
    C   C201  0.005390  0.282400  0.191210  0.384822
    C   C202  0.986100  0.230390  0.252710  -0.217404
    C   C203  0.927010  0.195740  0.290410  -0.133446
    C   C204  0.888930  0.213710  0.265220  -0.071398
    C   C205  0.908240  0.265440  0.204240  -0.044324
    C   C206  0.966070  0.299220  0.167110  -0.285513
    C   C207  0.907170  0.142840  0.357530  0.767597
    C   C208  0.869210  0.288980  0.177030  0.720516
    C   C209  0.286820  0.482540  0.020440  0.377051
    C   C210  0.251200  0.506790  0.998210  -0.183155
    C   C211  0.277250  0.572010  0.943100  -0.109650
    C   C212  0.340060  0.614590  0.910110  -0.082801
    C   C213  0.375290  0.590000  0.933790  -0.081348
    C   C214  0.348870  0.524670  0.987660  -0.278575
    C   C215  0.241240  0.600670  0.918570  0.732053
    C   C216  0.441760  0.635760  0.899540  0.755231
    N   N1    0.100690  0.638630  0.202940  -0.724365
    N   N2    0.155250  0.701610  0.098160  -0.761333
    N   N3    0.207060  0.726240  0.163780  -0.703387
    N   N4    0.054480  0.618430  0.135550  -0.589977
    N   N5    0.259270  0.785000  0.064730  -0.582130
    N   N6    0.150290  0.661440  0.264950  -0.579505
    N   N7    0.158430  0.361370  0.537940  -0.725563
    N   N8    0.200230  0.298390  0.546360  -0.759871
    N   N9    0.109980  0.273760  0.519180  -0.708754
    N   N10   0.246020  0.381570  0.563950  -0.580809
    N   N11   0.150270  0.215000  0.525730  -0.581994
    N   N12   0.073610  0.338560  0.511150  -0.573797
    N   N13   0.462060  0.303630  0.899310  -0.726593
    N   N14   0.453640  0.253410  0.844750  -0.765327
    N   N15   0.480820  0.370840  0.792940  -0.706313
    N   N16   0.436050  0.190030  0.945520  -0.592157
    N   N17   0.474270  0.324000  0.740730  -0.578462
    N   N18   0.488850  0.415240  0.849710  -0.578623
    N   N19   0.797060  0.696370  0.841570  -0.727326
    N   N20   0.901840  0.746590  0.799770  -0.761761
    N   N21   0.836220  0.629160  0.890020  -0.708092
    N   N22   0.864450  0.809970  0.753980  -0.581677
    N   N23   0.935270  0.676000  0.849730  -0.572618
    N   N24   0.735050  0.584760  0.926390  -0.584813
    N   N25   0.899310  0.361370  0.797060  -0.724369
    N   N26   0.844750  0.298390  0.901840  -0.761344
    N   N27   0.792940  0.273760  0.836220  -0.703357
    N   N28   0.945520  0.381570  0.864450  -0.589981
    N   N29   0.740730  0.215000  0.935270  -0.582087
    N   N30   0.849710  0.338560  0.735050  -0.579462
    N   N31   0.841570  0.638630  0.462060  -0.725531
    N   N32   0.799770  0.701610  0.453640  -0.759846
    N   N33   0.890020  0.726240  0.480820  -0.708769
    N   N34   0.753980  0.618430  0.436050  -0.580792
    N   N35   0.849730  0.785000  0.474270  -0.582038
    N   N36   0.926390  0.661440  0.488850  -0.573842
    N   N37   0.537940  0.696370  0.100690  -0.726600
    N   N38   0.546360  0.746590  0.155250  -0.765361
    N   N39   0.519180  0.629160  0.207060  -0.706345
    N   N40   0.563950  0.809970  0.054480  -0.592156
    N   N41   0.525730  0.676000  0.259270  -0.578479
    N   N42   0.511150  0.584760  0.150290  -0.578745
    N   N43   0.202940  0.303630  0.158430  -0.727314
    N   N44   0.098160  0.253410  0.200230  -0.761717
    N   N45   0.163780  0.370840  0.109980  -0.708060
    N   N46   0.135550  0.190030  0.246020  -0.581666
    N   N47   0.064730  0.324000  0.150270  -0.572588
    N   N48   0.264950  0.415240  0.073610  -0.584844
    O   O1    0.914930  0.488440  0.352570  -0.581920
    O   O2    0.832180  0.393530  0.365330  -0.582497
    O   O3    0.812820  0.366150  0.198550  -0.602110
    O   O4    0.892530  0.442310  0.112020  -0.614930
    O   O5    0.188190  0.674830  0.945760  -0.606566
    O   O6    0.259020  0.759480  0.852400  -0.591833
    O   O7    0.442820  0.968150  0.818650  -0.571836
    O   O8    0.445490  0.989080  0.890610  -0.595818
    O   O9    0.381180  0.860100  0.187600  -0.574589
    O   O10   0.389540  0.867390  0.267470  -0.585772
    O   O11   0.226590  0.692290  0.461620  -0.589141
    O   O12   0.143930  0.597700  0.474350  -0.604512
    O   O13   0.158990  0.511560  0.573510  -0.586246
    O   O14   0.241140  0.606470  0.561350  -0.576522
    O   O15   0.435300  0.633850  0.553330  -0.596832
    O   O16   0.445670  0.557690  0.549780  -0.624350
    O   O17   0.379410  0.325170  0.486640  -0.607332
    O   O18   0.388120  0.240520  0.500460  -0.590099
    O   O19   0.213200  0.031850  0.525330  -0.573004
    O   O20   0.120310  0.010920  0.543590  -0.602965
    O   O21   0.952300  0.139900  0.478920  -0.574712
    O   O22   0.865140  0.132610  0.477850  -0.588106
    O   O23   0.846090  0.307710  0.465700  -0.604031
    O   O24   0.927950  0.402300  0.453770  -0.604568
    O   O25   0.426490  0.267500  0.085070  -0.583374
    O   O26   0.438650  0.197510  0.167820  -0.578085
    O   O27   0.446670  0.011370  0.187180  -0.599604
    O   O28   0.450220  0.004550  0.107470  -0.617879
    O   O29   0.513360  0.133950  0.811810  -0.605851
    O   O30   0.499540  0.111420  0.740980  -0.590762
    O   O31   0.474670  0.261470  0.557180  -0.572955
    O   O32   0.456410  0.336100  0.554510  -0.599659
    O   O33   0.521080  0.568780  0.618820  -0.581710
    O   O34   0.522150  0.657010  0.610460  -0.596398
    O   O35   0.534300  0.688210  0.773410  -0.589729
    O   O36   0.546230  0.618280  0.856070  -0.605187
    O   O37   0.647430  0.732500  0.841010  -0.585352
    O   O38   0.634670  0.802490  0.758860  -0.579249
    O   O39   0.801450  0.988630  0.564700  -0.593314
    O   O40   0.887980  0.995450  0.554330  -0.615797
    O   O41   0.054240  0.866050  0.620590  -0.599466
    O   O42   0.147600  0.888580  0.611880  -0.587628
    O   O43   0.181350  0.738530  0.786800  -0.576000
    O   O44   0.109390  0.663900  0.879690  -0.599034
    O   O45   0.812400  0.431220  0.047700  -0.575137
    O   O46   0.732530  0.342990  0.134860  -0.590128
    O   O47   0.538380  0.311790  0.153910  -0.589604
    O   O48   0.525650  0.381720  0.072050  -0.601899
    O   O49   0.085070  0.511560  0.647430  -0.582051
    O   O50   0.167820  0.606470  0.634670  -0.582674
    O   O51   0.187180  0.633850  0.801450  -0.602156
    O   O52   0.107470  0.557690  0.887980  -0.615008
    O   O53   0.811810  0.325170  0.054240  -0.606551
    O   O54   0.740980  0.240520  0.147600  -0.591837
    O   O55   0.557180  0.031850  0.181350  -0.571847
    O   O56   0.554510  0.010920  0.109390  -0.595809
    O   O57   0.618820  0.139900  0.812400  -0.574576
    O   O58   0.610460  0.132610  0.732530  -0.585747
    O   O59   0.773410  0.307710  0.538380  -0.588966
    O   O60   0.856070  0.402300  0.525650  -0.604369
    O   O61   0.841010  0.488440  0.426490  -0.586117
    O   O62   0.758860  0.393530  0.438650  -0.576342
    O   O63   0.564700  0.366150  0.446670  -0.596788
    O   O64   0.554330  0.442310  0.450220  -0.624286
    O   O65   0.620590  0.674830  0.513360  -0.607340
    O   O66   0.611880  0.759480  0.499540  -0.590086
    O   O67   0.786800  0.968150  0.474670  -0.572988
    O   O68   0.879690  0.989080  0.456410  -0.602974
    O   O69   0.047700  0.860100  0.521080  -0.574719
    O   O70   0.134860  0.867390  0.522150  -0.588128
    O   O71   0.153910  0.692290  0.534300  -0.604213
    O   O72   0.072050  0.597700  0.546230  -0.604719
    O   O73   0.573510  0.732500  0.914930  -0.583369
    O   O74   0.561350  0.802490  0.832180  -0.578050
    O   O75   0.553330  0.988630  0.812820  -0.599551
    O   O76   0.549780  0.995450  0.892530  -0.617818
    O   O77   0.486640  0.866050  0.188190  -0.605851
    O   O78   0.500460  0.888580  0.259020  -0.590771
    O   O79   0.525330  0.738530  0.442820  -0.572959
    O   O80   0.543590  0.663900  0.445490  -0.599676
    O   O81   0.478920  0.431220  0.381180  -0.581753
    O   O82   0.477850  0.342990  0.389540  -0.596415
    O   O83   0.465700  0.311790  0.226590  -0.589733
    O   O84   0.453770  0.381720  0.143930  -0.605179
    O   O85   0.352570  0.267500  0.158990  -0.585358
    O   O86   0.365330  0.197510  0.241140  -0.579285
    O   O87   0.198550  0.011370  0.435300  -0.593363
    O   O88   0.112020  0.004550  0.445670  -0.615850
    O   O89   0.945760  0.133950  0.379410  -0.599471
    O   O90   0.852400  0.111420  0.388120  -0.587614
    O   O91   0.818650  0.261470  0.213200  -0.575989
    O   O92   0.890610  0.336100  0.120310  -0.599013
    O   O93   0.187600  0.568780  0.952300  -0.575093
    O   O94   0.267470  0.657010  0.865140  -0.590118
    O   O95   0.461620  0.688210  0.846090  -0.589604
    O   O96   0.474350  0.618280  0.927950  -0.601915
