# Generated by REPEAT Assigner based on pymatgen
data_DB12-BUVYEX_freeONLY
_audit_creation_date              2022-05-24
_audit_creation_method            REPEAT_Assigner
_cell_length_a                    16.145000
_cell_length_b                    17.977500
_cell_length_c                    17.977500
_cell_angle_alpha                 68.556800
_cell_angle_beta                  72.581100
_cell_angle_gamma                 107.419000
_cell_volume                      4113.890391
_symmetry_space_group_name_H-M    P1
_symmetry_Int_Tables_number       1
loop_
    _symmetry_equiv_pos_site_id
    _symmetry_equiv_pos_as_xyz
    1  x,y,z
loop_
    _atom_site_type_symbol
    _atom_site_label
    _atom_site_fract_x
    _atom_site_fract_y
    _atom_site_fract_z
    _atom_type_partial_charge
    Fe  Fe1   0.000000  0.000000  0.500000  -0.173011
    Fe  Fe2   0.500000  0.500000  0.500000  -0.205028
    Fe  Fe3   -0.000000  0.500000  0.000000  -0.172681
    H   H1    0.848900  0.052700  0.742500  0.145772
    H   H2    0.693900  0.934800  0.814200  0.097651
    H   H3    0.660100  0.842100  0.751500  0.128724
    H   H4    0.780100  0.869400  0.624000  0.027312
    H   H5    0.327600  0.274000  0.434000  0.113643
    H   H6    0.456200  0.381600  0.422500  0.057612
    H   H7    0.282700  0.427300  0.578600  0.092071
    H   H8    0.151200  0.321500  0.593700  0.143138
    H   H9    0.591400  0.742500  0.204800  0.146188
    H   H10   0.508100  0.814200  0.251000  0.097328
    H   H11   0.411600  0.751500  0.406400  0.130023
    H   H12   0.404100  0.624000  0.506600  0.026638
    H   H13   0.761600  0.434000  0.292000  0.112610
    H   H14   0.878700  0.422500  0.195900  0.058542
    H   H15   0.861300  0.578600  0.994100  0.092640
    H   H16   0.744900  0.593700  0.084800  0.144405
    H   H17   0.796200  0.204800  0.052700  0.146266
    H   H18   0.759100  0.251000  0.934800  0.097080
    H   H19   0.818000  0.406400  0.842100  0.130349
    H   H20   0.910700  0.506600  0.869400  0.024331
    H   H21   0.053600  0.292000  0.274000  0.112388
    H   H22   0.074600  0.195900  0.381600  0.058211
    H   H23   0.855400  0.994100  0.427300  0.091644
    H   H24   0.829700  0.084800  0.321500  0.144402
    H   H25   0.151100  0.947300  0.257500  0.145806
    H   H26   0.306100  0.065200  0.185800  0.097658
    H   H27   0.339900  0.157900  0.248500  0.128666
    H   H28   0.219900  0.130600  0.376000  0.027239
    H   H29   0.672400  0.726000  0.566000  0.113596
    H   H30   0.543800  0.618400  0.577500  0.057598
    H   H31   0.717300  0.572700  0.421400  0.092075
    H   H32   0.848800  0.678500  0.406300  0.143087
    H   H33   0.408600  0.257500  0.795200  0.146227
    H   H34   0.491900  0.185800  0.749000  0.097384
    H   H35   0.588400  0.248500  0.593600  0.130069
    H   H36   0.595900  0.376000  0.493400  0.026398
    H   H37   0.238400  0.566000  0.708000  0.112562
    H   H38   0.121300  0.577500  0.804100  0.058554
    H   H39   0.138700  0.421400  0.005900  0.092661
    H   H40   0.255100  0.406300  0.915200  0.144396
    H   H41   0.203800  0.795200  0.947300  0.146167
    H   H42   0.240900  0.749000  0.065200  0.097177
    H   H43   0.182000  0.593600  0.157900  0.130429
    H   H44   0.089300  0.493400  0.130600  0.024370
    H   H45   0.946400  0.708000  0.726000  0.112408
    H   H46   0.925400  0.804100  0.618400  0.058198
    H   H47   0.144600  0.005900  0.572700  0.091639
    H   H48   0.170300  0.915200  0.678500  0.144372
    C   C1    0.004000  0.095900  0.592800  0.207118
    C   C2    0.141200  0.202700  0.536100  0.478820
    C   C3    0.902800  0.025400  0.643200  0.040124
    C   C4    0.833100  0.014000  0.720300  -0.131727
    C   C5    0.742100  0.945300  0.762000  -0.059660
    C   C6    0.722200  0.889800  0.724500  -0.176407
    C   C7    0.794700  0.906300  0.648300  0.076322
    C   C8    0.223300  0.279600  0.520900  0.012083
    C   C9    0.316200  0.303100  0.466400  -0.101881
    C   C10   0.393400  0.369000  0.459100  0.029896
    C   C11   0.293200  0.395400  0.549100  -0.016636
    C   C12   0.213300  0.330700  0.559700  -0.159186
    C   C13   0.596800  0.592800  0.311300  0.199937
    C   C14   0.677300  0.536100  0.261200  0.476819
    C   C15   0.546000  0.643200  0.331400  0.042638
    C   C16   0.553400  0.720300  0.265700  -0.132115
    C   C17   0.504100  0.762000  0.292700  -0.059022
    C   C18   0.446700  0.724500  0.385700  -0.179345
    C   C19   0.443000  0.648300  0.445400  0.079411
    C   C20   0.744200  0.520900  0.199500  0.012166
    C   C21   0.782600  0.466400  0.230500  -0.099074
    C   C22   0.852500  0.459100  0.171900  0.028297
    C   C23   0.842300  0.549100  0.055500  -0.017954
    C   C24   0.773000  0.559700  0.109600  -0.159653
    C   C25   0.908100  0.311300  0.095900  0.204541
    C   C26   0.938500  0.261200  0.202700  0.480046
    C   C27   0.877400  0.331400  0.025400  0.046791
    C   C28   0.819100  0.265700  0.014000  -0.134902
    C   C29   0.796800  0.292700  0.945300  -0.056574
    C   C30   0.832400  0.385700  0.889800  -0.181917
    C   C31   0.888400  0.445400  0.906300  0.084597
    C   C32   0.943700  0.199500  0.279600  0.011381
    C   C33   0.013100  0.230500  0.303100  -0.099990
    C   C34   0.024400  0.171900  0.369000  0.030997
    C   C35   0.897800  0.055500  0.395400  -0.012462
    C   C36   0.882600  0.109600  0.330700  -0.161679
    C   C37   0.996000  0.904100  0.407200  0.207151
    C   C38   0.858800  0.797300  0.463900  0.478961
    C   C39   0.097200  0.974600  0.356800  0.040149
    C   C40   0.166900  0.986000  0.279700  -0.131758
    C   C41   0.257900  0.054700  0.238000  -0.059716
    C   C42   0.277800  0.110200  0.275500  -0.176302
    C   C43   0.205300  0.093700  0.351700  0.076455
    C   C44   0.776700  0.720400  0.479100  0.012008
    C   C45   0.683800  0.696900  0.533600  -0.101838
    C   C46   0.606600  0.631000  0.540900  0.029942
    C   C47   0.706800  0.604600  0.450900  -0.016679
    C   C48   0.786700  0.669300  0.440300  -0.159110
    C   C49   0.403200  0.407200  0.688700  0.200053
    C   C50   0.322700  0.463900  0.738800  0.476975
    C   C51   0.454000  0.356800  0.668600  0.042624
    C   C52   0.446600  0.279700  0.734300  -0.132149
    C   C53   0.495900  0.238000  0.707300  -0.059153
    C   C54   0.553300  0.275500  0.614300  -0.179420
    C   C55   0.557000  0.351700  0.554600  0.079786
    C   C56   0.255800  0.479100  0.800500  0.012035
    C   C57   0.217400  0.533600  0.769500  -0.099010
    C   C58   0.147500  0.540900  0.828100  0.028291
    C   C59   0.157700  0.450900  0.944500  -0.018040
    C   C60   0.227000  0.440300  0.890400  -0.159565
    C   C61   0.091900  0.688700  0.904100  0.204394
    C   C62   0.061500  0.738800  0.797300  0.479873
    C   C63   0.122600  0.668600  0.974600  0.046745
    C   C64   0.180900  0.734300  0.986000  -0.134590
    C   C65   0.203200  0.707300  0.054700  -0.056866
    C   C66   0.167600  0.614300  0.110200  -0.182089
    C   C67   0.111600  0.554600  0.093700  0.084791
    C   C68   0.056300  0.800500  0.720400  0.011524
    C   C69   0.986900  0.769500  0.696900  -0.100112
    C   C70   0.975600  0.828100  0.631000  0.031077
    C   C71   0.102200  0.944500  0.604600  -0.012446
    C   C72   0.117400  0.890400  0.669300  -0.161727
    N   N1    0.062400  0.095000  0.522000  0.325535
    N   N2    0.151100  0.163900  0.487100  -0.579636
    N   N3    0.050700  0.163100  0.603900  -0.587145
    N   N4    0.884900  0.972600  0.607500  0.002313
    N   N5    0.385000  0.416300  0.500100  -0.076437
    N   N6    0.584400  0.522000  0.383000  0.343738
    N   N7    0.638200  0.487100  0.349000  -0.583500
    N   N8    0.654600  0.603900  0.233000  -0.584996
    N   N9    0.492400  0.607500  0.419900  0.004157
    N   N10   0.885100  0.500100  0.083600  -0.079762
    N   N11   0.967400  0.383000  0.095000  0.328186
    N   N12   0.987200  0.349000  0.163900  -0.580058
    N   N13   0.887600  0.233000  0.163100  -0.587205
    N   N14   0.912300  0.419900  0.972600  -0.006172
    N   N15   0.968700  0.083600  0.416300  -0.084335
    N   N16   0.937600  0.905000  0.478000  0.325526
    N   N17   0.848900  0.836100  0.512900  -0.579698
    N   N18   0.949300  0.836900  0.396100  -0.587224
    N   N19   0.115100  0.027400  0.392500  0.002230
    N   N20   0.615000  0.583700  0.499900  -0.076442
    N   N21   0.415600  0.478000  0.617000  0.343673
    N   N22   0.361800  0.512900  0.651000  -0.583617
    N   N23   0.345400  0.396100  0.767000  -0.585068
    N   N24   0.507600  0.392500  0.580100  0.004011
    N   N25   0.114900  0.499900  0.916400  -0.079761
    N   N26   0.032600  0.617000  0.905000  0.328296
    N   N27   0.012800  0.651000  0.836100  -0.579973
    N   N28   0.112400  0.767000  0.836900  -0.587102
    N   N29   0.087700  0.580100  0.027400  -0.006256
    N   N30   0.031300  0.916400  0.583700  -0.084361
    Fe  Fe4   -0.000000  0.500000  0.500000  -0.204887
    Fe  Fe5   0.500000  0.000000  0.500000  -0.172756
    Fe  Fe6   0.500000  0.500000  0.000000  -0.173084
    H   H49   0.908600  0.204800  0.742500  0.146237
    H   H50   0.991900  0.251000  0.814200  0.097386
    H   H51   0.088400  0.406400  0.751500  0.130056
    H   H52   0.095900  0.506600  0.624000  0.026323
    H   H53   0.738400  0.292000  0.434000  0.112543
    H   H54   0.621300  0.195900  0.422500  0.058450
    H   H55   0.638700  0.994100  0.578600  0.092714
    H   H56   0.755100  0.084800  0.593700  0.144422
    H   H57   0.703800  0.052700  0.204800  0.146156
    H   H58   0.740900  0.934800  0.251000  0.097176
    H   H59   0.682000  0.842100  0.406400  0.130432
    H   H60   0.589300  0.869400  0.506600  0.024343
    H   H61   0.446400  0.274000  0.292000  0.112384
    H   H62   0.425400  0.381600  0.195900  0.058203
    H   H63   0.644600  0.427300  0.994100  0.091706
    H   H64   0.670300  0.321500  0.084800  0.144341
    H   H65   0.651100  0.742500  0.052700  0.145810
    H   H66   0.806100  0.814200  0.934800  0.097653
    H   H67   0.839900  0.751500  0.842100  0.128662
    H   H68   0.719900  0.624000  0.869400  0.027240
    H   H69   0.172400  0.434000  0.274000  0.113603
    H   H70   0.043800  0.422500  0.381600  0.057582
    H   H71   0.217300  0.578600  0.427300  0.092097
    H   H72   0.348800  0.593700  0.321500  0.143098
    H   H73   0.091400  0.795200  0.257500  0.146198
    H   H74   0.008100  0.749000  0.185800  0.097342
    H   H75   0.911600  0.593600  0.248500  0.129950
    H   H76   0.904100  0.493400  0.376000  0.026570
    H   H77   0.261600  0.708000  0.566000  0.112587
    H   H78   0.378700  0.804100  0.577500  0.058536
    H   H79   0.361300  0.005900  0.421400  0.092607
    H   H80   0.244900  0.915200  0.406300  0.144420
    H   H81   0.296200  0.947300  0.795200  0.146248
    H   H82   0.259100  0.065200  0.749000  0.097103
    H   H83   0.318000  0.157900  0.593600  0.130399
    H   H84   0.410700  0.130600  0.493400  0.024286
    H   H85   0.553600  0.726000  0.708000  0.112395
    H   H86   0.574600  0.618400  0.804100  0.058216
    H   H87   0.355400  0.572700  0.005900  0.091679
    H   H88   0.329700  0.678500  0.915200  0.144395
    H   H89   0.348900  0.257500  0.947300  0.145771
    H   H90   0.193900  0.185800  0.065200  0.097666
    H   H91   0.160100  0.248500  0.157900  0.128654
    H   H92   0.280100  0.376000  0.130600  0.027259
    H   H93   0.827600  0.566000  0.726000  0.113687
    H   H94   0.956200  0.577500  0.618400  0.057577
    H   H95   0.782700  0.421400  0.572700  0.092046
    H   H96   0.651200  0.406300  0.678500  0.143174
    C   C73   0.903200  0.311300  0.592800  0.200094
    C   C74   0.822700  0.261200  0.536100  0.476901
    C   C75   0.954000  0.331400  0.643200  0.042637
    C   C76   0.946600  0.265700  0.720300  -0.132177
    C   C77   0.995900  0.292700  0.762000  -0.059149
    C   C78   0.053300  0.385700  0.724500  -0.179431
    C   C79   0.057000  0.445400  0.648300  0.079911
    C   C80   0.755800  0.199500  0.520900  0.012093
    C   C81   0.717400  0.230500  0.466400  -0.099041
    C   C82   0.647500  0.171900  0.459100  0.028297
    C   C83   0.657700  0.055500  0.549100  -0.018160
    C   C84   0.727000  0.109600  0.559700  -0.159575
    C   C85   0.591900  0.095900  0.311300  0.204346
    C   C86   0.561500  0.202700  0.261200  0.479933
    C   C87   0.622600  0.025400  0.331400  0.046762
    C   C88   0.680900  0.014000  0.265700  -0.134561
    C   C89   0.703200  0.945300  0.292700  -0.056881
    C   C90   0.667600  0.889800  0.385700  -0.182080
    C   C91   0.611600  0.906300  0.445400  0.084867
    C   C92   0.556300  0.279600  0.199500  0.011412
    C   C93   0.486900  0.303100  0.230500  -0.100033
    C   C94   0.475600  0.369000  0.171900  0.031020
    C   C95   0.602200  0.395400  0.055500  -0.012577
    C   C96   0.617400  0.330700  0.109600  -0.161625
    C   C97   0.496000  0.592800  0.095900  0.207156
    C   C98   0.358800  0.536100  0.202700  0.478952
    C   C99   0.597200  0.643200  0.025400  0.040158
    C   C100  0.666900  0.720300  0.014000  -0.131765
    C   C101  0.757900  0.762000  0.945300  -0.059712
    C   C102  0.777800  0.724500  0.889800  -0.176276
    C   C103  0.705300  0.648300  0.906300  0.076448
    C   C104  0.276700  0.520900  0.279600  0.012015
    C   C105  0.183800  0.466400  0.303100  -0.101839
    C   C106  0.106600  0.459100  0.369000  0.029970
    C   C107  0.206800  0.549100  0.395400  -0.016706
    C   C108  0.286700  0.559700  0.330700  -0.159103
    C   C109  0.096800  0.688700  0.407200  0.199977
    C   C110  0.177300  0.738800  0.463900  0.476806
    C   C111  0.046000  0.668600  0.356800  0.042644
    C   C112  0.053400  0.734300  0.279700  -0.132131
    C   C113  0.004100  0.707300  0.238000  -0.059071
    C   C114  0.946700  0.614300  0.275500  -0.179216
    C   C115  0.943000  0.554600  0.351700  0.079474
    C   C116  0.244200  0.800500  0.479100  0.012162
    C   C117  0.282600  0.769500  0.533600  -0.099115
    C   C118  0.352500  0.828100  0.540900  0.028301
    C   C119  0.342300  0.944500  0.450900  -0.017993
    C   C120  0.273000  0.890400  0.440300  -0.159632
    C   C121  0.408100  0.904100  0.688700  0.204545
    C   C122  0.438500  0.797300  0.738800  0.480017
    C   C123  0.377400  0.974600  0.668600  0.046793
    C   C124  0.319100  0.986000  0.734300  -0.134833
    C   C125  0.296800  0.054700  0.707300  -0.056658
    C   C126  0.332400  0.110200  0.614300  -0.181967
    C   C127  0.388400  0.093700  0.554600  0.084799
    C   C128  0.443700  0.720400  0.800500  0.011354
    C   C129  0.513100  0.696900  0.769500  -0.099982
    C   C130  0.524400  0.631000  0.828100  0.030966
    C   C131  0.397800  0.604600  0.944500  -0.012564
    C   C132  0.382600  0.669300  0.890400  -0.161615
    C   C133  0.504000  0.407200  0.904100  0.207140
    C   C134  0.641200  0.463900  0.797300  0.478796
    C   C135  0.402800  0.356800  0.974600  0.040103
    C   C136  0.333100  0.279700  0.986000  -0.131696
    C   C137  0.242100  0.238000  0.054700  -0.059741
    C   C138  0.222200  0.275500  0.110200  -0.176266
    C   C139  0.294700  0.351700  0.093700  0.076392
    C   C140  0.723300  0.479100  0.720400  0.012244
    C   C141  0.816200  0.533600  0.696900  -0.102029
    C   C142  0.893400  0.540900  0.631000  0.030040
    C   C143  0.793200  0.450900  0.604600  -0.016466
    C   C144  0.713300  0.440300  0.669300  -0.159352
    N   N31   0.915600  0.383000  0.522000  0.343573
    N   N32   0.861800  0.349000  0.487100  -0.583518
    N   N33   0.845400  0.233000  0.603900  -0.585072
    N   N34   0.007600  0.419900  0.607500  0.003950
    N   N35   0.614900  0.083600  0.500100  -0.079599
    N   N36   0.532600  0.095000  0.383000  0.328426
    N   N37   0.512800  0.163900  0.349000  -0.579970
    N   N38   0.612400  0.163100  0.233000  -0.587111
    N   N39   0.587700  0.972600  0.419900  -0.006361
    N   N40   0.531300  0.416300  0.083600  -0.084263
    N   N41   0.437600  0.522000  0.095000  0.325528
    N   N42   0.348900  0.487100  0.163900  -0.579679
    N   N43   0.449300  0.603900  0.163100  -0.587235
    N   N44   0.615100  0.607500  0.972600  0.002220
    N   N45   0.115000  0.500100  0.416300  -0.076465
    N   N46   0.084400  0.617000  0.478000  0.343648
    N   N47   0.138200  0.651000  0.512900  -0.583427
    N   N48   0.154600  0.767000  0.396100  -0.585014
    N   N49   0.992400  0.580100  0.392500  0.004100
    N   N50   0.385100  0.916400  0.499900  -0.079675
    N   N51   0.467400  0.905000  0.617000  0.328216
    N   N52   0.487200  0.836100  0.651000  -0.580049
    N   N53   0.387600  0.836900  0.767000  -0.587205
    N   N54   0.412300  0.027400  0.580100  -0.006327
    N   N55   0.468700  0.583700  0.916400  -0.084245
    N   N56   0.562400  0.478000  0.905000  0.325540
    N   N57   0.651100  0.512900  0.836100  -0.579644
    N   N58   0.550700  0.396100  0.836900  -0.587162
    N   N59   0.384900  0.392500  0.027400  0.002279
    N   N60   0.885000  0.499900  0.583700  -0.076582
