# generated using pymatgen
data_Zr3H8(C3O4)4
_symmetry_space_group_name_H-M   'P 1'
_cell_length_a   17.93090000
_cell_length_b   17.93090000
_cell_length_c   17.93090000
_cell_angle_alpha   90.00000000
_cell_angle_beta   90.00000000
_cell_angle_gamma   90.00000000
_symmetry_Int_Tables_number   1
_chemical_formula_structural   Zr3H8(C3O4)4
_chemical_formula_sum   'Zr24 H64 C96 O128'
_cell_volume   5765.09230980
_cell_formula_units_Z   8
loop_
 _symmetry_equiv_pos_site_id
 _symmetry_equiv_pos_as_xyz
  1  'x, y, z'
loop_
 _atom_site_type_symbol
 _atom_site_label
 _atom_site_symmetry_multiplicity
 _atom_site_fract_x
 _atom_site_fract_y
 _atom_site_fract_z
 _atom_site_occupancy
  Zr  Zr1  1  0.99172000  0.13265000  0.99152000  1
  Zr  Zr2  1  0.13265000  0.00848000  0.00828000  1
  Zr  Zr3  1  0.86745000  0.99091000  0.99110000  1
  Zr  Zr4  1  0.99091000  0.00890000  0.13255000  1
  Zr  Zr5  1  0.00848000  0.99172000  0.86735000  1
  Zr  Zr6  1  0.00890000  0.86745000  0.00909000  1
  Zr  Zr7  1  0.49172000  0.63265000  0.99152000  1
  Zr  Zr8  1  0.63265000  0.50848000  0.00828000  1
  Zr  Zr9  1  0.36745000  0.49091000  0.99110000  1
  Zr  Zr10  1  0.49091000  0.50890000  0.13255000  1
  Zr  Zr11  1  0.50848000  0.49172000  0.86735000  1
  Zr  Zr12  1  0.50890000  0.36745000  0.00909000  1
  Zr  Zr13  1  0.99172000  0.63265000  0.49152000  1
  Zr  Zr14  1  0.13265000  0.50848000  0.50828000  1
  Zr  Zr15  1  0.86745000  0.49091000  0.49110000  1
  Zr  Zr16  1  0.99091000  0.50890000  0.63255000  1
  Zr  Zr17  1  0.00848000  0.49172000  0.36735000  1
  Zr  Zr18  1  0.00890000  0.36745000  0.50909000  1
  Zr  Zr19  1  0.49172000  0.13265000  0.49152000  1
  Zr  Zr20  1  0.63265000  0.00848000  0.50828000  1
  Zr  Zr21  1  0.36745000  0.99091000  0.49110000  1
  Zr  Zr22  1  0.49091000  0.00890000  0.63255000  1
  Zr  Zr23  1  0.50848000  0.99172000  0.36735000  1
  Zr  Zr24  1  0.50890000  0.86745000  0.50909000  1
  H  H1  1  0.08856000  0.10952000  0.09840000  1
  H  H2  1  0.90160000  0.08856000  0.89049000  1
  H  H3  1  0.90118000  0.90118000  0.09882000  1
  H  H4  1  0.10951000  0.90160000  0.91144000  1
  H  H5  1  0.58856000  0.60952000  0.09840000  1
  H  H6  1  0.40160000  0.58856000  0.89049000  1
  H  H7  1  0.40118000  0.40118000  0.09882000  1
  H  H8  1  0.60951000  0.40160000  0.91144000  1
  H  H9  1  0.08856000  0.60951000  0.59840000  1
  H  H10  1  0.90160000  0.58856000  0.39049000  1
  H  H11  1  0.90118000  0.40118000  0.59882000  1
  H  H12  1  0.10952000  0.40160000  0.41144000  1
  H  H13  1  0.58856000  0.10951000  0.59840000  1
  H  H14  1  0.40160000  0.08856000  0.39049000  1
  H  H15  1  0.40118000  0.90118000  0.59882000  1
  H  H16  1  0.60952000  0.90160000  0.41144000  1
  H  H17  1  0.18715000  0.30465000  0.98817000  1
  H  H18  1  0.31448000  0.19397000  0.00516000  1
  H  H19  1  0.18715000  0.80465000  0.48818000  1
  H  H20  1  0.31448000  0.69397000  0.50516000  1
  H  H21  1  0.81448000  0.69397000  0.00516000  1
  H  H22  1  0.68715000  0.80465000  0.98817000  1
  H  H23  1  0.81448000  0.19397000  0.50516000  1
  H  H24  1  0.68715000  0.30465000  0.48818000  1
  H  H25  1  0.69484000  0.18716000  0.98910000  1
  H  H26  1  0.80563000  0.31231000  0.01804000  1
  H  H27  1  0.69484000  0.68716000  0.48910000  1
  H  H28  1  0.80563000  0.81231000  0.51804000  1
  H  H29  1  0.30563000  0.31231000  0.51804000  1
  H  H30  1  0.19484000  0.18716000  0.48910000  1
  H  H31  1  0.30563000  0.81231000  0.01804000  1
  H  H32  1  0.19484000  0.68716000  0.98910000  1
  H  H33  1  0.98196000  0.30563000  0.18769000  1
  H  H34  1  0.01090000  0.19484000  0.31284000  1
  H  H35  1  0.51090000  0.19484000  0.81284000  1
  H  H36  1  0.48196000  0.30563000  0.68769000  1
  H  H37  1  0.01090000  0.69484000  0.81284000  1
  H  H38  1  0.98196000  0.80563000  0.68769000  1
  H  H39  1  0.48196000  0.80563000  0.18769000  1
  H  H40  1  0.51090000  0.69484000  0.31284000  1
  H  H41  1  0.99484000  0.81448000  0.30603000  1
  H  H42  1  0.01183000  0.68715000  0.19535000  1
  H  H43  1  0.51182000  0.68715000  0.69535000  1
  H  H44  1  0.49484000  0.81448000  0.80603000  1
  H  H45  1  0.49484000  0.31448000  0.30603000  1
  H  H46  1  0.51183000  0.18715000  0.19535000  1
  H  H47  1  0.01182000  0.18715000  0.69535000  1
  H  H48  1  0.99484000  0.31448000  0.80603000  1
  H  H49  1  0.18716000  0.01090000  0.30516000  1
  H  H50  1  0.31231000  0.98196000  0.19437000  1
  H  H51  1  0.31231000  0.48196000  0.69437000  1
  H  H52  1  0.18716000  0.51090000  0.80516000  1
  H  H53  1  0.81231000  0.98196000  0.69437000  1
  H  H54  1  0.68716000  0.01090000  0.80516000  1
  H  H55  1  0.68716000  0.51090000  0.30516000  1
  H  H56  1  0.81231000  0.48196000  0.19437000  1
  H  H57  1  0.30465000  0.01182000  0.81285000  1
  H  H58  1  0.19397000  0.99484000  0.68552000  1
  H  H59  1  0.19397000  0.49484000  0.18552000  1
  H  H60  1  0.30465000  0.51182000  0.31285000  1
  H  H61  1  0.69397000  0.99484000  0.18552000  1
  H  H62  1  0.80465000  0.01182000  0.31285000  1
  H  H63  1  0.80465000  0.51182000  0.81285000  1
  H  H64  1  0.69397000  0.49484000  0.68552000  1
  C  C1  1  0.81613000  0.16027000  0.99248000  1
  C  C2  1  0.16093000  0.18355000  0.99616000  1
  C  C3  1  0.98680000  0.18435000  0.16075000  1
  C  C4  1  0.00384000  0.16093000  0.81645000  1
  C  C5  1  0.18435000  0.83925000  0.01320000  1
  C  C6  1  0.84046000  0.81525000  0.99858000  1
  C  C7  1  0.16027000  0.00752000  0.18387000  1
  C  C8  1  0.18355000  0.00384000  0.83907000  1
  C  C9  1  0.83925000  0.98680000  0.81565000  1
  C  C10  1  0.81525000  0.00142000  0.15954000  1
  C  C11  1  0.00142000  0.84046000  0.18476000  1
  C  C12  1  0.00752000  0.81613000  0.83973000  1
  C  C13  1  0.31613000  0.66027000  0.99248000  1
  C  C14  1  0.66093000  0.68355000  0.99616000  1
  C  C15  1  0.48680000  0.68435000  0.16075000  1
  C  C16  1  0.50384000  0.66093000  0.81645000  1
  C  C17  1  0.68435000  0.33925000  0.01320000  1
  C  C18  1  0.34046000  0.31525000  0.99858000  1
  C  C19  1  0.66027000  0.50752000  0.18387000  1
  C  C20  1  0.68355000  0.50384000  0.83907000  1
  C  C21  1  0.33925000  0.48680000  0.81565000  1
  C  C22  1  0.31525000  0.50142000  0.15954000  1
  C  C23  1  0.50142000  0.34046000  0.18476000  1
  C  C24  1  0.50752000  0.31613000  0.83973000  1
  C  C25  1  0.81613000  0.66027000  0.49248000  1
  C  C26  1  0.16093000  0.68355000  0.49616000  1
  C  C27  1  0.98680000  0.68435000  0.66075000  1
  C  C28  1  0.00384000  0.66093000  0.31645000  1
  C  C29  1  0.18435000  0.33925000  0.51320000  1
  C  C30  1  0.84046000  0.31525000  0.49858000  1
  C  C31  1  0.16027000  0.50752000  0.68387000  1
  C  C32  1  0.18355000  0.50384000  0.33907000  1
  C  C33  1  0.83925000  0.48680000  0.31565000  1
  C  C34  1  0.81524000  0.50142000  0.65954000  1
  C  C35  1  0.00142000  0.34046000  0.68475000  1
  C  C36  1  0.00752000  0.31613000  0.33973000  1
  C  C37  1  0.31613000  0.16027000  0.49248000  1
  C  C38  1  0.66093000  0.18355000  0.49616000  1
  C  C39  1  0.48680000  0.18435000  0.66075000  1
  C  C40  1  0.50384000  0.16093000  0.31645000  1
  C  C41  1  0.68435000  0.83925000  0.51320000  1
  C  C42  1  0.34046000  0.81525000  0.49858000  1
  C  C43  1  0.66027000  0.00752000  0.68387000  1
  C  C44  1  0.68355000  0.00384000  0.33907000  1
  C  C45  1  0.33925000  0.98680000  0.31565000  1
  C  C46  1  0.31524000  0.00142000  0.65954000  1
  C  C47  1  0.50142000  0.84046000  0.68475000  1
  C  C48  1  0.50752000  0.81613000  0.33973000  1
  C  C49  1  0.21311000  0.25041000  0.99400000  1
  C  C50  1  0.28849000  0.24818000  0.99924000  1
  C  C51  1  0.21311000  0.75041000  0.49400000  1
  C  C52  1  0.28849000  0.74818000  0.49924000  1
  C  C53  1  0.78849000  0.74818000  0.99924000  1
  C  C54  1  0.71311000  0.75041000  0.99400000  1
  C  C55  1  0.78849000  0.24818000  0.49924000  1
  C  C56  1  0.71311000  0.25041000  0.49400000  1
  C  C57  1  0.74916000  0.21249000  0.99663000  1
  C  C58  1  0.75132000  0.28693000  0.01060000  1
  C  C59  1  0.74916000  0.71249000  0.49663000  1
  C  C60  1  0.75132000  0.78693000  0.51060000  1
  C  C61  1  0.25132000  0.28693000  0.51060000  1
  C  C62  1  0.24916000  0.21249000  0.49663000  1
  C  C63  1  0.25132000  0.78693000  0.01060000  1
  C  C64  1  0.24916000  0.71249000  0.99663000  1
  C  C65  1  0.98940000  0.25132000  0.21307000  1
  C  C66  1  0.00337000  0.24916000  0.28751000  1
  C  C67  1  0.50337000  0.24916000  0.78751000  1
  C  C68  1  0.48940000  0.25132000  0.71307000  1
  C  C69  1  0.00337000  0.74916000  0.78751000  1
  C  C70  1  0.98940000  0.75132000  0.71307000  1
  C  C71  1  0.48940000  0.75132000  0.21307000  1
  C  C72  1  0.50337000  0.74916000  0.28751000  1
  C  C73  1  0.00076000  0.78849000  0.25182000  1
  C  C74  1  0.00600000  0.71311000  0.24959000  1
  C  C75  1  0.50600000  0.71311000  0.74959000  1
  C  C76  1  0.50076000  0.78849000  0.75182000  1
  C  C77  1  0.50076000  0.28849000  0.25182000  1
  C  C78  1  0.50600000  0.21311000  0.24959000  1
  C  C79  1  0.00600000  0.21311000  0.74959000  1
  C  C80  1  0.00076000  0.28849000  0.75182000  1
  C  C81  1  0.21249000  0.00337000  0.25084000  1
  C  C82  1  0.28693000  0.98940000  0.24868000  1
  C  C83  1  0.28693000  0.48940000  0.74868000  1
  C  C84  1  0.21249000  0.50337000  0.75084000  1
  C  C85  1  0.78693000  0.98940000  0.74868000  1
  C  C86  1  0.71249000  0.00337000  0.75084000  1
  C  C87  1  0.71249000  0.50337000  0.25084000  1
  C  C88  1  0.78693000  0.48940000  0.24868000  1
  C  C89  1  0.25041000  0.00600000  0.78689000  1
  C  C90  1  0.24818000  0.00076000  0.71151000  1
  C  C91  1  0.24818000  0.50076000  0.21151000  1
  C  C92  1  0.25041000  0.50600000  0.28689000  1
  C  C93  1  0.74818000  0.00076000  0.21151000  1
  C  C94  1  0.75041000  0.00600000  0.28689000  1
  C  C95  1  0.75041000  0.50600000  0.78689000  1
  C  C96  1  0.74818000  0.50076000  0.71151000  1
  O  O1  1  0.80027000  0.08928000  0.98990000  1
  O  O2  1  0.18740000  0.11581000  0.00421000  1
  O  O3  1  0.98643000  0.20015000  0.08968000  1
  O  O4  1  0.99579000  0.18740000  0.88419000  1
  O  O5  1  0.00954000  0.09017000  0.80064000  1
  O  O6  1  0.98701000  0.11623000  0.18744000  1
  O  O7  1  0.09017000  0.19936000  0.99045000  1
  O  O8  1  0.88419000  0.18705000  0.99166000  1
  O  O9  1  0.06757000  0.06757000  0.93243000  1
  O  O10  1  0.92349000  0.06728000  0.05875000  1
  O  O11  1  0.05901000  0.07538000  0.06681000  1
  O  O12  1  0.93319000  0.05901000  0.92462000  1
  O  O13  1  0.20015000  0.91032000  0.01357000  1
  O  O14  1  0.81375000  0.88299000  0.99148000  1
  O  O15  1  0.08928000  0.01010000  0.19973000  1
  O  O16  1  0.11581000  0.99579000  0.81260000  1
  O  O17  1  0.91032000  0.98643000  0.79985000  1
  O  O18  1  0.88299000  0.00852000  0.18625000  1
  O  O19  1  0.00852000  0.81375000  0.11701000  1
  O  O20  1  0.01010000  0.80027000  0.91072000  1
  O  O21  1  0.99361000  0.91110000  0.20021000  1
  O  O22  1  0.00834000  0.88419000  0.81295000  1
  O  O23  1  0.18705000  0.00834000  0.11581000  1
  O  O24  1  0.79979000  0.99361000  0.08890000  1
  O  O25  1  0.81256000  0.98701000  0.88377000  1
  O  O26  1  0.19936000  0.00954000  0.90983000  1
  O  O27  1  0.11623000  0.81256000  0.01299000  1
  O  O28  1  0.91110000  0.79979000  0.00640000  1
  O  O29  1  0.94125000  0.92349000  0.93272000  1
  O  O30  1  0.06728000  0.94125000  0.07651000  1
  O  O31  1  0.93299000  0.93299000  0.06701000  1
  O  O32  1  0.07538000  0.93319000  0.94099000  1
  O  O33  1  0.30027000  0.58928000  0.98990000  1
  O  O34  1  0.68740000  0.61581000  0.00421000  1
  O  O35  1  0.48643000  0.70015000  0.08968000  1
  O  O36  1  0.49579000  0.68740000  0.88419000  1
  O  O37  1  0.50954000  0.59017000  0.80064000  1
  O  O38  1  0.48701000  0.61623000  0.18744000  1
  O  O39  1  0.59017000  0.69936000  0.99045000  1
  O  O40  1  0.38419000  0.68705000  0.99166000  1
  O  O41  1  0.56757000  0.56757000  0.93243000  1
  O  O42  1  0.42349000  0.56728000  0.05875000  1
  O  O43  1  0.55901000  0.57538000  0.06681000  1
  O  O44  1  0.43319000  0.55901000  0.92462000  1
  O  O45  1  0.70015000  0.41032000  0.01357000  1
  O  O46  1  0.31375000  0.38299000  0.99148000  1
  O  O47  1  0.58928000  0.51010000  0.19973000  1
  O  O48  1  0.61581000  0.49579000  0.81260000  1
  O  O49  1  0.41032000  0.48643000  0.79985000  1
  O  O50  1  0.38299000  0.50852000  0.18625000  1
  O  O51  1  0.50852000  0.31375000  0.11701000  1
  O  O52  1  0.51010000  0.30027000  0.91072000  1
  O  O53  1  0.49361000  0.41110000  0.20021000  1
  O  O54  1  0.50834000  0.38419000  0.81295000  1
  O  O55  1  0.68705000  0.50834000  0.11581000  1
  O  O56  1  0.29979000  0.49361000  0.08890000  1
  O  O57  1  0.31256000  0.48701000  0.88377000  1
  O  O58  1  0.69936000  0.50954000  0.90983000  1
  O  O59  1  0.61623000  0.31256000  0.01299000  1
  O  O60  1  0.41110000  0.29979000  0.00640000  1
  O  O61  1  0.44125000  0.42349000  0.93272000  1
  O  O62  1  0.56728000  0.44125000  0.07651000  1
  O  O63  1  0.43299000  0.43299000  0.06701000  1
  O  O64  1  0.57538000  0.43319000  0.94099000  1
  O  O65  1  0.80027000  0.58928000  0.48990000  1
  O  O66  1  0.18740000  0.61581000  0.50421000  1
  O  O67  1  0.98643000  0.70015000  0.58968000  1
  O  O68  1  0.99579000  0.68740000  0.38419000  1
  O  O69  1  0.00954000  0.59017000  0.30064000  1
  O  O70  1  0.98701000  0.61623000  0.68744000  1
  O  O71  1  0.09017000  0.69936000  0.49046000  1
  O  O72  1  0.88419000  0.68705000  0.49166000  1
  O  O73  1  0.06757000  0.56757000  0.43243000  1
  O  O74  1  0.92349000  0.56728000  0.55875000  1
  O  O75  1  0.05901000  0.57538000  0.56681000  1
  O  O76  1  0.93319000  0.55901000  0.42462000  1
  O  O77  1  0.20015000  0.41032000  0.51357000  1
  O  O78  1  0.81375000  0.38299000  0.49148000  1
  O  O79  1  0.08928000  0.51010000  0.69973000  1
  O  O80  1  0.11581000  0.49579000  0.31260000  1
  O  O81  1  0.91032000  0.48643000  0.29985000  1
  O  O82  1  0.88299000  0.50852000  0.68625000  1
  O  O83  1  0.00852000  0.31375000  0.61701000  1
  O  O84  1  0.01010000  0.30027000  0.41072000  1
  O  O85  1  0.99360000  0.41110000  0.70021000  1
  O  O86  1  0.00834000  0.38419000  0.31295000  1
  O  O87  1  0.18705000  0.50834000  0.61581000  1
  O  O88  1  0.79979000  0.49360000  0.58890000  1
  O  O89  1  0.81256000  0.48701000  0.38377000  1
  O  O90  1  0.19936000  0.50954000  0.40983000  1
  O  O91  1  0.11623000  0.31256000  0.51299000  1
  O  O92  1  0.91110000  0.29979000  0.50639000  1
  O  O93  1  0.94125000  0.42349000  0.43272000  1
  O  O94  1  0.06728000  0.44125000  0.57651000  1
  O  O95  1  0.93299000  0.43299000  0.56701000  1
  O  O96  1  0.07538000  0.43319000  0.44099000  1
  O  O97  1  0.30027000  0.08928000  0.48990000  1
  O  O98  1  0.68740000  0.11581000  0.50421000  1
  O  O99  1  0.48643000  0.20015000  0.58968000  1
  O  O100  1  0.49579000  0.18740000  0.38419000  1
  O  O101  1  0.50954000  0.09017000  0.30064000  1
  O  O102  1  0.48701000  0.11623000  0.68744000  1
  O  O103  1  0.59017000  0.19936000  0.49046000  1
  O  O104  1  0.38419000  0.18705000  0.49166000  1
  O  O105  1  0.56757000  0.06757000  0.43243000  1
  O  O106  1  0.42349000  0.06728000  0.55875000  1
  O  O107  1  0.55901000  0.07538000  0.56681000  1
  O  O108  1  0.43319000  0.05901000  0.42462000  1
  O  O109  1  0.70015000  0.91032000  0.51357000  1
  O  O110  1  0.31375000  0.88299000  0.49148000  1
  O  O111  1  0.58928000  0.01010000  0.69973000  1
  O  O112  1  0.61581000  0.99579000  0.31260000  1
  O  O113  1  0.41032000  0.98643000  0.29985000  1
  O  O114  1  0.38299000  0.00852000  0.68625000  1
  O  O115  1  0.50852000  0.81375000  0.61701000  1
  O  O116  1  0.51010000  0.80027000  0.41072000  1
  O  O117  1  0.49360000  0.91110000  0.70021000  1
  O  O118  1  0.50834000  0.88419000  0.31295000  1
  O  O119  1  0.68705000  0.00834000  0.61581000  1
  O  O120  1  0.29979000  0.99360000  0.58890000  1
  O  O121  1  0.31256000  0.98701000  0.38377000  1
  O  O122  1  0.69936000  0.00954000  0.40983000  1
  O  O123  1  0.61623000  0.81256000  0.51299000  1
  O  O124  1  0.41110000  0.79979000  0.50639000  1
  O  O125  1  0.44125000  0.92349000  0.43272000  1
  O  O126  1  0.56728000  0.94125000  0.57651000  1
  O  O127  1  0.43299000  0.93299000  0.56701000  1
  O  O128  1  0.57538000  0.93319000  0.44099000  1
