# Generated by REPEAT Assigner based on pymatgen
data_DB12-WEYQAU02_clean
_audit_creation_date              2022-05-24
_audit_creation_method            REPEAT_Assigner
_cell_length_a                    14.771600
_cell_length_b                    12.426000
_cell_length_c                    16.627700
_cell_angle_alpha                 90.000000
_cell_angle_beta                  90.000000
_cell_angle_gamma                 90.000000
_cell_volume                      3052.045954
_symmetry_space_group_name_H-M    P1
_symmetry_Int_Tables_number       1
loop_
    _symmetry_equiv_pos_site_id
    _symmetry_equiv_pos_as_xyz
    1  x,y,z
loop_
    _atom_site_type_symbol
    _atom_site_label
    _atom_site_fract_x
    _atom_site_fract_y
    _atom_site_fract_z
    _atom_type_partial_charge
    Mn  Mn1  0.604760  0.483550  0.579270  1.349709
    O   O1   0.593290  0.348180  0.667320  -0.527191
    O   O2   0.673670  0.488970  0.702500  -0.536180
    O   O3   0.709110  0.480890  0.485410  -0.595446
    O   O4   0.698190  0.632370  0.551280  -0.511851
    O   O5   0.498450  0.581480  0.625660  -0.552125
    O   O6   0.525090  0.380390  0.503200  -0.637282
    C   C1   0.636270  0.400770  0.719230  0.569678
    C   C2   0.641640  0.359030  0.803740  0.076828
    C   C3   0.695060  0.411740  0.860660  -0.205904
    C   C4   0.592830  0.268330  0.826350  -0.193652
    H   H1   0.725600  0.474400  0.846600  0.207908
    C   C5   0.702890  0.371150  0.938500  0.024289
    H   H2   0.557500  0.232600  0.788500  0.173624
    C   C6   0.596230  0.230290  0.905160  0.050242
    C   C7   0.652740  0.280840  0.960680  -0.106877
    C   C8   0.768520  0.422280  0.996090  0.614133
    C   C9   0.537830  0.136850  0.929470  0.666296
    H   H3   0.657000  0.254200  0.012800  0.134131
    Mn  Mn2  0.895240  0.516450  0.079270  1.349459
    O   O7   0.906710  0.651820  0.167320  -0.527226
    O   O8   0.826330  0.511030  0.202500  -0.536241
    O   O9   0.790890  0.519110  0.985410  -0.595535
    O   O10  0.801810  0.367630  0.051280  -0.511920
    O   O11  0.001550  0.418520  0.125660  -0.552157
    O   O12  0.974910  0.619610  0.003200  -0.637280
    C   C10  0.863730  0.599230  0.219230  0.569679
    C   C11  0.858360  0.640970  0.303740  0.076831
    C   C12  0.804940  0.588260  0.360660  -0.205896
    C   C13  0.907170  0.731670  0.326350  -0.193646
    H   H4   0.774400  0.525600  0.346600  0.207904
    C   C14  0.797110  0.628850  0.438500  0.024320
    H   H5   0.942500  0.767400  0.288500  0.173622
    C   C15  0.903770  0.769710  0.405160  0.050209
    C   C16  0.847260  0.719160  0.460680  -0.106885
    C   C17  0.731480  0.577720  0.496090  0.614125
    C   C18  0.962170  0.863150  0.429470  0.666338
    H   H6   0.843000  0.745800  0.512800  0.134133
    Mn  Mn3  0.395240  0.983550  0.920730  1.349473
    O   O13  0.406710  0.848180  0.832680  -0.527255
    O   O14  0.326330  0.988970  0.797500  -0.536269
    O   O15  0.290890  0.980890  0.014590  -0.595451
    O   O16  0.301810  0.132370  0.948720  -0.511883
    O   O17  0.501550  0.081480  0.874340  -0.552111
    O   O18  0.474910  0.880390  0.996800  -0.637280
    C   C19  0.363730  0.900770  0.780770  0.569669
    C   C20  0.358360  0.859030  0.696260  0.076838
    C   C21  0.304940  0.911740  0.639340  -0.205891
    C   C22  0.407170  0.768330  0.673650  -0.193640
    H   H7   0.274400  0.974400  0.653400  0.207898
    C   C23  0.297110  0.871150  0.561500  0.024242
    H   H8   0.442500  0.732600  0.711500  0.173623
    C   C24  0.403770  0.730290  0.594840  0.050213
    C   C25  0.347260  0.780840  0.539320  -0.106866
    C   C26  0.231480  0.922280  0.503910  0.614152
    C   C27  0.462170  0.636850  0.570530  0.666344
    H   H9   0.343000  0.754200  0.487200  0.134122
    Mn  Mn4  0.104760  0.016450  0.420730  1.349622
    O   O19  0.093290  0.151820  0.332680  -0.527176
    O   O20  0.173670  0.011030  0.297500  -0.536162
    O   O21  0.209110  0.019110  0.514590  -0.595478
    O   O22  0.198190  0.867630  0.448720  -0.511914
    O   O23  0.998450  0.918520  0.374340  -0.552161
    O   O24  0.025090  0.119610  0.496800  -0.637267
    C   C28  0.136270  0.099230  0.280770  0.569668
    C   C29  0.141640  0.140970  0.196260  0.076837
    C   C30  0.195060  0.088260  0.139340  -0.205879
    C   C31  0.092830  0.231670  0.173650  -0.193632
    H   H10  0.225600  0.025600  0.153400  0.207906
    C   C32  0.202890  0.128850  0.061500  0.024213
    H   H11  0.057500  0.267400  0.211500  0.173622
    C   C33  0.096230  0.269710  0.094840  0.050180
    C   C34  0.152740  0.219160  0.039320  -0.106829
    C   C35  0.268520  0.077720  0.003910  0.614172
    C   C36  0.037830  0.363150  0.070530  0.666344
    H   H12  0.157000  0.245800  0.987200  0.134105
    Mn  Mn5  0.395240  0.516450  0.420730  1.349400
    O   O25  0.406710  0.651820  0.332680  -0.527293
    O   O26  0.326330  0.511030  0.297500  -0.536325
    O   O27  0.290890  0.519110  0.514590  -0.595485
    O   O28  0.301810  0.367630  0.448720  -0.511930
    O   O29  0.501550  0.418520  0.374340  -0.552125
    O   O30  0.474910  0.619610  0.496800  -0.637295
    C   C37  0.363730  0.599230  0.280770  0.569685
    C   C38  0.358360  0.640970  0.196260  0.076799
    C   C39  0.304940  0.588260  0.139340  -0.205843
    C   C40  0.407170  0.731670  0.173650  -0.193615
    H   H13  0.274400  0.525600  0.153400  0.207880
    C   C41  0.297110  0.628850  0.061500  0.024202
    H   H14  0.442500  0.767400  0.211500  0.173612
    C   C42  0.403770  0.769710  0.094840  0.050191
    C   C43  0.347260  0.719160  0.039320  -0.106826
    C   C44  0.231480  0.577720  0.003910  0.614181
    C   C45  0.462170  0.863150  0.070530  0.666343
    H   H15  0.343000  0.745800  0.987200  0.134111
    Mn  Mn6  0.104760  0.483550  0.920730  1.349592
    O   O31  0.093290  0.348180  0.832680  -0.527156
    O   O32  0.173670  0.488970  0.797500  -0.536165
    O   O33  0.209110  0.480890  0.014590  -0.595480
    O   O34  0.198190  0.632370  0.948720  -0.511899
    O   O35  0.998450  0.581480  0.874340  -0.552127
    O   O36  0.025090  0.380390  0.996800  -0.637278
    C   C46  0.136270  0.400770  0.780770  0.569649
    C   C47  0.141640  0.359030  0.696260  0.076867
    C   C48  0.195060  0.411740  0.639340  -0.205873
    C   C49  0.092830  0.268330  0.673650  -0.193657
    H   H16  0.225600  0.474400  0.653400  0.207905
    C   C50  0.202890  0.371150  0.561500  0.024228
    H   H17  0.057500  0.232600  0.711500  0.173624
    C   C51  0.096230  0.230290  0.594840  0.050199
    C   C52  0.152740  0.280840  0.539320  -0.106832
    C   C53  0.268520  0.422280  0.503910  0.614171
    C   C54  0.037830  0.136850  0.570530  0.666337
    H   H18  0.157000  0.254200  0.487200  0.134108
    Mn  Mn7  0.604760  0.016450  0.079270  1.349605
    O   O37  0.593290  0.151820  0.167320  -0.527235
    O   O38  0.673670  0.011030  0.202500  -0.536240
    O   O39  0.709110  0.019110  0.985410  -0.595434
    O   O40  0.698190  0.867630  0.051280  -0.511834
    O   O41  0.498450  0.918520  0.125660  -0.552129
    O   O42  0.525090  0.119610  0.003200  -0.637270
    C   C55  0.636270  0.099230  0.219230  0.569699
    C   C56  0.641640  0.140970  0.303740  0.076791
    C   C57  0.695060  0.088260  0.360660  -0.205855
    C   C58  0.592830  0.231670  0.326350  -0.193631
    H   H19  0.725600  0.025600  0.346600  0.207887
    C   C59  0.702890  0.128850  0.438500  0.024200
    H   H20  0.557500  0.267400  0.288500  0.173621
    C   C60  0.596230  0.269710  0.405160  0.050236
    C   C61  0.652740  0.219160  0.460680  -0.106830
    C   C62  0.768520  0.077720  0.496090  0.614175
    C   C63  0.537830  0.363150  0.429470  0.666306
    H   H21  0.657000  0.245800  0.512800  0.134113
    Mn  Mn8  0.895240  0.983550  0.579270  1.349420
    O   O43  0.906710  0.848180  0.667320  -0.527244
    O   O44  0.826330  0.988970  0.702500  -0.536247
    O   O45  0.790890  0.980890  0.485410  -0.595517
    O   O46  0.801810  0.132370  0.551280  -0.511961
    O   O47  0.001550  0.081480  0.625660  -0.552161
    O   O48  0.974910  0.880390  0.503200  -0.637279
    C   C64  0.863730  0.900770  0.719230  0.569677
    C   C65  0.858360  0.859030  0.803740  0.076832
    C   C66  0.804940  0.911740  0.860660  -0.205926
    C   C67  0.907170  0.768330  0.826350  -0.193646
    H   H22  0.774400  0.974400  0.846600  0.207918
    C   C68  0.797110  0.871150  0.938500  0.024315
    H   H23  0.942500  0.732600  0.788500  0.173619
    C   C69  0.903770  0.730290  0.905160  0.050227
    C   C70  0.847260  0.780840  0.960680  -0.106892
    C   C71  0.731480  0.922280  0.996090  0.614101
    C   C72  0.962170  0.636850  0.929470  0.666301
    H   H24  0.843000  0.754200  0.012800  0.134138
