# Generated by REPEAT Assigner based on pymatgen
data_DB12-WAYMIU_manual
_audit_creation_date              2022-05-24
_audit_creation_method            REPEAT_Assigner
_cell_length_a                    6.560300
_cell_length_b                    15.984600
_cell_length_c                    13.444100
_cell_angle_alpha                 90.000000
_cell_angle_beta                  90.000000
_cell_angle_gamma                 90.000000
_cell_volume                      1409.799029
_symmetry_space_group_name_H-M    P1
_symmetry_Int_Tables_number       1
loop_
    _symmetry_equiv_pos_site_id
    _symmetry_equiv_pos_as_xyz
    1  x,y,z
loop_
    _atom_site_type_symbol
    _atom_site_label
    _atom_site_fract_x
    _atom_site_fract_y
    _atom_site_fract_z
    _atom_type_partial_charge
    O   O1   0.671030  0.921670  0.328940  -0.660934
    O   O2   0.324150  0.580190  0.659300  -0.666296
    C   C1   0.314430  0.780800  0.455330  -0.121890
    C   C2   0.314120  0.711880  0.519630  -0.154835
    H   H1   0.170450  0.805990  0.430350  0.125140
    H   H2   0.170140  0.685830  0.542880  0.131249
    O   O3   0.170010  0.421370  0.829240  -0.664945
    O   O4   0.824780  0.080840  0.159440  -0.668601
    C   C3   0.813890  0.281060  0.956090  -0.122693
    C   C4   0.814330  0.212110  0.020180  -0.158863
    H   H3   0.669970  0.306250  0.931160  0.125094
    H   H4   0.670670  0.185950  0.043380  0.133721
    O   O5   0.322190  0.082210  0.331710  -0.650156
    O   O6   0.667860  0.423400  0.661930  -0.666450
    C   C5   0.679630  0.220830  0.460920  -0.148317
    C   C6   0.679660  0.289950  0.524950  -0.128404
    H   H5   0.823870  0.195730  0.436230  0.131537
    H   H6   0.823750  0.316270  0.548400  0.124414
    O   O7   0.822010  0.582510  0.831350  -0.657371
    O   O8   0.168140  0.923450  0.161850  -0.665652
    C   C7   0.179570  0.721400  0.960200  -0.149952
    C   C8   0.179800  0.790320  0.024470  -0.126644
    H   H7   0.323670  0.696530  0.935160  0.132403
    H   H8   0.323840  0.816440  0.048300  0.124021
    O   O9   0.667830  0.082200  0.331090  -0.651766
    O   O10  0.322800  0.424010  0.660230  -0.667914
    C   C9   0.311280  0.221040  0.460670  -0.148643
    C   C10  0.311090  0.290150  0.524750  -0.125354
    H   H9   0.167020  0.196040  0.435880  0.130114
    H   H10  0.166900  0.316700  0.547840  0.123421
    O   O11  0.168570  0.582920  0.829880  -0.654735
    O   O12  0.822100  0.923900  0.160630  -0.667612
    C   C11  0.811100  0.721490  0.960030  -0.147683
    C   C12  0.811180  0.790410  0.024330  -0.126537
    H   H11  0.666790  0.696670  0.934990  0.130502
    H   H12  0.667160  0.816680  0.047900  0.123970
    O   O13  0.325030  0.921790  0.329480  -0.669188
    O   O14  0.670360  0.580760  0.659370  -0.663860
    C   C13  0.682930  0.780790  0.455560  -0.121697
    C   C14  0.682420  0.711730  0.519940  -0.158482
    H   H13  0.827490  0.805990  0.430570  0.123990
    H   H14  0.826730  0.685670  0.543450  0.134388
    O   O15  0.824550  0.422360  0.829920  -0.670795
    O   O16  0.170420  0.080710  0.159750  -0.662295
    C   C15  0.182570  0.281250  0.955960  -0.121968
    C   C16  0.182730  0.212160  0.020130  -0.163398
    H   H15  0.326890  0.306550  0.930930  0.126021
    H   H16  0.327010  0.186060  0.043470  0.135857
    Al  Al1  0.744920  0.003130  0.245970  2.224148
    Al  Al2  0.244020  0.502700  0.746100  2.226375
    Al  Al3  0.244610  0.003060  0.246450  2.220181
    Al  Al4  0.744820  0.502920  0.746550  2.232926
    O   O17  0.994860  0.004670  0.299870  -1.219948
    O   O18  0.494040  0.503920  0.799710  -1.217851
    O   O19  0.495250  0.004790  0.193270  -1.204400
    O   O20  0.993930  0.503710  0.693050  -1.210258
    C   C17  0.497770  0.677740  0.554760  0.060241
    C   C18  0.498680  0.817290  0.424120  0.035638
    C   C19  0.497110  0.608490  0.628700  0.592930
    C   C20  0.498250  0.891570  0.357130  0.597810
    C   C21  0.998460  0.178100  0.055120  0.066260
    C   C22  0.997780  0.317630  0.924750  0.040778
    C   C23  0.997870  0.108740  0.128940  0.591546
    C   C24  0.997110  0.391860  0.857690  0.595318
    C   C25  0.495530  0.324740  0.558710  0.029589
    C   C26  0.495520  0.184930  0.428610  0.066188
    C   C27  0.495710  0.395170  0.630910  0.609440
    C   C28  0.495180  0.111720  0.360080  0.567806
    C   C29  0.995600  0.824890  0.058550  0.030278
    C   C30  0.995470  0.685580  0.927690  0.067063
    C   C31  0.995290  0.895190  0.131140  0.608159
    C   C32  0.995660  0.612280  0.859080  0.570356
    H   H17  0.992760  0.503770  0.628820  0.401535
    H   H18  0.492970  0.504240  0.863740  0.397674
    H   H19  0.495520  0.005730  0.129150  0.398690
    H   H20  0.994840  0.005420  0.364020  0.399620
