# Generated by REPEAT Assigner based on pymatgen
data_DB12-CIXCAO_freeONLY
_audit_creation_date              2022-05-24
_audit_creation_method            REPEAT_Assigner
_cell_length_a                    13.675000
_cell_length_b                    27.881000
_cell_length_c                    45.714000
_cell_angle_alpha                 90.000000
_cell_angle_beta                  90.000000
_cell_angle_gamma                 90.000000
_cell_volume                      17429.499065
_symmetry_space_group_name_H-M    P1
_symmetry_Int_Tables_number       1
loop_
    _symmetry_equiv_pos_site_id
    _symmetry_equiv_pos_as_xyz
    1  x,y,z
loop_
    _atom_site_type_symbol
    _atom_site_label
    _atom_site_fract_x
    _atom_site_fract_y
    _atom_site_fract_z
    _atom_type_partial_charge
    Zn  Zn1   0.144800  0.744040  0.188940  0.537273
    Zn  Zn2   0.160890  0.557250  0.929530  0.579744
    Zn  Zn3   0.350310  0.527770  0.087200  0.587838
    Zn  Zn4   0.855200  0.755960  0.688940  0.537275
    Zn  Zn5   0.839110  0.942750  0.429530  0.579746
    Zn  Zn6   0.649690  0.972230  0.587200  0.587784
    Zn  Zn7   0.644800  0.255960  0.311060  0.537276
    Zn  Zn8   0.660890  0.442750  0.570470  0.579756
    Zn  Zn9   0.850310  0.472230  0.412800  0.587791
    Zn  Zn10  0.355200  0.244040  0.811060  0.537284
    Zn  Zn11  0.339110  0.057250  0.070460  0.580434
    Zn  Zn12  0.149690  0.027770  0.912800  0.587779
    H   H1    0.182400  0.688900  0.135800  0.092509
    H   H2    0.100800  0.653500  0.096500  0.082666
    H   H3    0.933100  0.718600  0.174500  0.111075
    H   H4    0.845000  0.682900  0.136900  0.036562
    H   H5    0.499200  0.587000  0.119400  0.111076
    H   H6    0.655000  0.617100  0.113600  0.273131
    H   H7    0.500000  0.535700  0.038900  0.101204
    H   H8    0.656400  0.564900  0.030900  0.153948
    H   H9    0.961600  0.537500  0.955400  -0.026771
    H   H10   0.867200  0.557800  0.995400  0.264121
    H   H11   0.190800  0.603800  0.988200  -0.055079
    H   H12   0.101800  0.627200  0.029000  0.071458
    H   H13   0.845800  0.835700  0.438500  0.004980
    H   H14   0.876700  0.765500  0.413100  0.137196
    H   H15   0.912400  0.913900  0.369700  0.029728
    H   H16   0.939500  0.846100  0.341700  0.099359
    H   H17   0.029500  0.803200  0.232100  0.200645
    H   H18   0.969700  0.795800  0.279600  0.112410
    H   H19   0.083500  0.664300  0.228400  0.140716
    H   H20   0.021300  0.653300  0.275300  0.126695
    H   H21   0.893000  0.512700  0.352900  0.114619
    H   H22   0.921200  0.585800  0.330000  0.119923
    H   H23   0.882500  0.575300  0.430000  0.081260
    H   H24   0.906500  0.649700  0.408800  0.129403
    H   H25   0.817600  0.811100  0.635800  0.092521
    H   H26   0.899200  0.846500  0.596500  0.082601
    H   H27   0.066900  0.781400  0.674500  0.111088
    H   H28   0.155000  0.817100  0.636900  0.036542
    H   H29   0.500800  0.913000  0.619400  0.111080
    H   H30   0.345000  0.882900  0.613600  0.273101
    H   H31   0.500000  0.964300  0.538900  0.101212
    H   H32   0.343600  0.935100  0.530900  0.153959
    H   H33   0.038400  0.962500  0.455400  -0.026744
    H   H34   0.132800  0.942200  0.495400  0.263998
    H   H35   0.809200  0.896200  0.488200  -0.054984
    H   H36   0.898200  0.872800  0.529000  0.071414
    H   H37   0.154200  0.664300  0.938500  0.005051
    H   H38   0.123300  0.734500  0.913100  0.137177
    H   H39   0.087600  0.586100  0.869700  0.029716
    H   H40   0.060500  0.653900  0.841700  0.099356
    H   H41   0.970500  0.696800  0.732100  0.200644
    H   H42   0.030300  0.704200  0.779600  0.112404
    H   H43   0.916500  0.835700  0.728400  0.140724
    H   H44   0.978700  0.846700  0.775300  0.126695
    H   H45   0.107000  0.987300  0.852900  0.114609
    H   H46   0.078800  0.914200  0.830000  0.119922
    H   H47   0.117500  0.924700  0.930000  0.081291
    H   H48   0.093500  0.850300  0.908800  0.129412
    H   H49   0.682400  0.311100  0.364200  0.092490
    H   H50   0.600800  0.346500  0.403500  0.082722
    H   H51   0.433100  0.281400  0.325500  0.111075
    H   H52   0.345000  0.317100  0.363100  0.036564
    H   H53   0.999200  0.413000  0.380600  0.111066
    H   H54   0.155000  0.382900  0.386400  0.273121
    H   H55   0.000000  0.464300  0.461100  0.101206
    H   H56   0.156400  0.435100  0.469100  0.153981
    H   H57   0.461600  0.462500  0.544600  -0.026809
    H   H58   0.367200  0.442200  0.504600  0.263943
    H   H59   0.690800  0.396200  0.511800  -0.055092
    H   H60   0.601800  0.372800  0.471000  0.071424
    H   H61   0.345800  0.164300  0.061500  0.004643
    H   H62   0.376700  0.234500  0.086900  0.137386
    H   H63   0.412400  0.086100  0.130300  0.029308
    H   H64   0.439500  0.153900  0.158300  0.099590
    H   H65   0.529500  0.196800  0.267900  0.200669
    H   H66   0.469700  0.204200  0.220400  0.112353
    H   H67   0.583500  0.335700  0.271600  0.140728
    H   H68   0.521300  0.346700  0.224700  0.126627
    H   H69   0.393000  0.487300  0.147100  0.114583
    H   H70   0.421200  0.414200  0.170000  0.120067
    H   H71   0.382500  0.424700  0.070000  0.081185
    H   H72   0.406500  0.350300  0.091200  0.129347
    H   H73   0.317600  0.188900  0.864200  0.092488
    H   H74   0.399200  0.153500  0.903500  0.082736
    H   H75   0.566900  0.218600  0.825500  0.111087
    H   H76   0.655000  0.182900  0.863100  0.036512
    H   H77   0.000800  0.087000  0.880600  0.111066
    H   H78   0.845000  0.117100  0.886400  0.273112
    H   H79   0.000000  0.035700  0.961100  0.101208
    H   H80   0.843600  0.064900  0.969100  0.153944
    H   H81   0.538400  0.037500  0.044600  -0.027447
    H   H82   0.632800  0.057800  0.004600  0.264417
    H   H83   0.309200  0.103800  0.011800  -0.055342
    H   H84   0.398200  0.127200  0.971000  0.071539
    H   H85   0.654200  0.335700  0.561500  0.004987
    H   H86   0.623300  0.265500  0.586900  0.137208
    H   H87   0.587600  0.413900  0.630300  0.029729
    H   H88   0.560500  0.346100  0.658300  0.099360
    H   H89   0.470500  0.303200  0.767900  0.200662
    H   H90   0.530300  0.295800  0.720400  0.112395
    H   H91   0.416500  0.164300  0.771600  0.140716
    H   H92   0.478700  0.153300  0.724700  0.126645
    H   H93   0.607000  0.012700  0.647100  0.114578
    H   H94   0.578800  0.085800  0.670000  0.120072
    H   H95   0.617500  0.075300  0.570000  0.081175
    H   H96   0.593500  0.149700  0.591200  0.129372
    C   C1    0.113000  0.688300  0.135700  -0.029929
    C   C2    0.064800  0.666770  0.112290  0.027988
    C   C3    0.967400  0.705400  0.158300  -0.033260
    C   C4    0.914300  0.684230  0.136010  -0.043496
    C   C5    0.964300  0.665010  0.112430  -0.071207
    C   C6    0.911600  0.642200  0.087620  0.740435
    C   C7    0.532100  0.582200  0.101300  0.056606
    C   C8    0.624700  0.600200  0.098070  -0.247656
    C   C9    0.532600  0.552250  0.054210  0.108121
    C   C10   0.625500  0.569400  0.049290  -0.105064
    C   C11   0.673600  0.593460  0.071760  -0.097566
    C   C12   0.776600  0.609380  0.068280  0.673202
    C   C13   0.990000  0.556250  0.970490  0.244321
    C   C14   0.933200  0.568270  0.994190  -0.336190
    C   C15   0.123700  0.595100  0.989520  0.483105
    C   C16   0.071200  0.609000  0.013990  -0.226673
    C   C17   0.974000  0.596140  0.016420  -0.010349
    C   C18   0.916200  0.609810  0.042680  0.759056
    C   C19   0.865800  0.837600  0.418580  0.141940
    C   C20   0.882800  0.795610  0.403570  -0.100312
    C   C21   0.903900  0.883270  0.378390  0.065951
    C   C22   0.920500  0.843120  0.361570  0.038989
    C   C23   0.909000  0.798180  0.374270  -0.154310
    C   C24   0.923900  0.753960  0.356780  0.772882
    C   C25   0.029400  0.772560  0.241270  -0.108671
    C   C26   0.993200  0.768380  0.269460  -0.070224
    C   C27   0.060500  0.691280  0.239040  -0.053827
    C   C28   0.024000  0.684530  0.267010  -0.071934
    C   C29   0.991800  0.723790  0.282680  -0.111772
    C   C30   0.960500  0.719010  0.313720  0.770232
    C   C31   0.896000  0.540950  0.364460  -0.039581
    C   C32   0.912000  0.584520  0.350570  -0.025842
    C   C33   0.889300  0.577370  0.409400  0.123359
    C   C34   0.903800  0.621880  0.396810  -0.144348
    C   C35   0.914200  0.625940  0.367150  -0.131345
    C   C36   0.926600  0.673290  0.353180  0.815256
    C   C37   0.887000  0.811700  0.635700  -0.029884
    C   C38   0.935200  0.833230  0.612290  0.027918
    C   C39   0.032600  0.794600  0.658300  -0.033270
    C   C40   0.085700  0.815770  0.636010  -0.043491
    C   C41   0.035700  0.834990  0.612430  -0.071032
    C   C42   0.088400  0.857800  0.587620  0.740025
    C   C43   0.467900  0.917800  0.601300  0.056616
    C   C44   0.375300  0.899800  0.598070  -0.247654
    C   C45   0.467400  0.947750  0.554210  0.108084
    C   C46   0.374500  0.930600  0.549290  -0.105040
    C   C47   0.326400  0.906540  0.571760  -0.097529
    C   C48   0.223400  0.890620  0.568280  0.673192
    C   C49   0.010000  0.943750  0.470490  0.244205
    C   C50   0.066800  0.931730  0.494190  -0.335953
    C   C51   0.876300  0.904900  0.489520  0.482738
    C   C52   0.928800  0.891000  0.513990  -0.226451
    C   C53   0.026000  0.903860  0.516420  -0.010367
    C   C54   0.083800  0.890190  0.542680  0.758952
    C   C55   0.134200  0.662400  0.918580  0.141815
    C   C56   0.117200  0.704390  0.903570  -0.100247
    C   C57   0.096100  0.616730  0.878390  0.065989
    C   C58   0.079500  0.656880  0.861570  0.038979
    C   C59   0.091000  0.701820  0.874270  -0.154313
    C   C60   0.076100  0.746040  0.856780  0.772863
    C   C61   0.970600  0.727440  0.741270  -0.108702
    C   C62   0.006800  0.731620  0.769460  -0.070207
    C   C63   0.939500  0.808720  0.739040  -0.053870
    C   C64   0.976000  0.815470  0.767010  -0.071917
    C   C65   0.008200  0.776210  0.782680  -0.111783
    C   C66   0.039500  0.780990  0.813720  0.770223
    C   C67   0.104000  0.959050  0.864460  -0.039586
    C   C68   0.088000  0.915480  0.850570  -0.025838
    C   C69   0.110700  0.922630  0.909400  0.123330
    C   C70   0.096200  0.878120  0.896810  -0.144358
    C   C71   0.085800  0.874060  0.867150  -0.131345
    C   C72   0.073400  0.826710  0.853180  0.815260
    C   C73   0.613000  0.311700  0.364300  -0.029872
    C   C74   0.564800  0.333230  0.387710  0.027862
    C   C75   0.467400  0.294600  0.341700  -0.033247
    C   C76   0.414300  0.315770  0.363990  -0.043515
    C   C77   0.464300  0.334990  0.387570  -0.071169
    C   C78   0.411600  0.357800  0.412380  0.740479
    C   C79   0.032100  0.417800  0.398700  0.056599
    C   C80   0.124700  0.399800  0.401930  -0.247639
    C   C81   0.032600  0.447750  0.445790  0.108137
    C   C82   0.125500  0.430600  0.450710  -0.105112
    C   C83   0.173600  0.406540  0.428240  -0.097499
    C   C84   0.276600  0.390620  0.431720  0.673213
    C   C85   0.490000  0.443750  0.529510  0.244350
    C   C86   0.433200  0.431730  0.505810  -0.335880
    C   C87   0.623700  0.404900  0.510480  0.483120
    C   C88   0.571200  0.391000  0.486010  -0.226617
    C   C89   0.474000  0.403860  0.483580  -0.010431
    C   C90   0.416200  0.390190  0.457320  0.759069
    C   C91   0.365800  0.162400  0.081420  0.143524
    C   C92   0.382800  0.204390  0.096430  -0.101384
    C   C93   0.403900  0.116730  0.121610  0.067787
    C   C94   0.420500  0.156880  0.138430  0.037735
    C   C95   0.409000  0.201820  0.125730  -0.153342
    C   C96   0.423900  0.246040  0.143220  0.772558
    C   C97   0.529400  0.227440  0.258730  -0.108717
    C   C98   0.493200  0.231620  0.230540  -0.070130
    C   C99   0.560500  0.308720  0.260960  -0.053864
    C   C100  0.524000  0.315470  0.232990  -0.071804
    C   C101  0.491800  0.276210  0.217320  -0.111885
    C   C102  0.460500  0.280990  0.186280  0.770278
    C   C103  0.396000  0.459050  0.135540  -0.039491
    C   C104  0.412000  0.415480  0.149430  -0.026020
    C   C105  0.389300  0.422630  0.090600  0.123512
    C   C106  0.403800  0.378120  0.103190  -0.144266
    C   C107  0.414200  0.374060  0.132850  -0.131405
    C   C108  0.426600  0.326710  0.146820  0.815323
    C   C109  0.387000  0.188300  0.864300  -0.029958
    C   C110  0.435200  0.166770  0.887710  0.028090
    C   C111  0.532600  0.205400  0.841700  -0.033314
    C   C112  0.585700  0.184230  0.863990  -0.043336
    C   C113  0.535700  0.165010  0.887570  -0.071521
    C   C114  0.588400  0.142200  0.912380  0.740747
    C   C115  0.967900  0.082200  0.898700  0.056582
    C   C116  0.875300  0.100200  0.901930  -0.247604
    C   C117  0.967400  0.052250  0.945790  0.108142
    C   C118  0.874500  0.069400  0.950710  -0.105093
    C   C119  0.826400  0.093460  0.928240  -0.097496
    C   C120  0.723400  0.109380  0.931720  0.673088
    C   C121  0.510000  0.056250  0.029510  0.247287
    C   C122  0.566800  0.068270  0.005810  -0.338118
    C   C123  0.376300  0.095100  0.010480  0.484556
    C   C124  0.428800  0.109000  0.986010  -0.227562
    C   C125  0.526000  0.096140  0.983580  -0.009067
    C   C126  0.583800  0.109810  0.957320  0.758705
    C   C127  0.634200  0.337600  0.581420  0.141885
    C   C128  0.617200  0.295610  0.596430  -0.100290
    C   C129  0.596100  0.383270  0.621610  0.065921
    C   C130  0.579500  0.343120  0.638430  0.039022
    C   C131  0.591000  0.298180  0.625730  -0.154335
    C   C132  0.576100  0.253960  0.643220  0.772885
    C   C133  0.470600  0.272560  0.758730  -0.108689
    C   C134  0.506800  0.268380  0.730540  -0.070196
    C   C135  0.439500  0.191280  0.760960  -0.053826
    C   C136  0.476000  0.184530  0.732990  -0.071853
    C   C137  0.508200  0.223790  0.717320  -0.111826
    C   C138  0.539500  0.219010  0.686280  0.770304
    C   C139  0.604000  0.040950  0.635540  -0.039504
    C   C140  0.588000  0.084520  0.649430  -0.026030
    C   C141  0.610700  0.077370  0.590600  0.123522
    C   C142  0.596200  0.121880  0.603190  -0.144299
    C   C143  0.585800  0.125940  0.632850  -0.131395
    C   C144  0.573400  0.173290  0.646820  0.815340
    I   I1    0.303080  0.696520  0.195440  -0.415897
    I   I2    0.152940  0.833020  0.176840  -0.476255
    I   I3    0.341890  0.566530  0.941400  -0.420214
    I   I4    0.079020  0.489300  0.902040  -0.356538
    I   I5    0.274020  0.510720  0.037480  -0.518016
    I   I6    0.266020  0.576490  0.126910  -0.427851
    I   I7    0.696920  0.803480  0.695440  -0.415904
    I   I8    0.847060  0.666980  0.676840  -0.476252
    I   I9    0.658110  0.933470  0.441400  -0.420207
    I   I10   0.920980  0.010700  0.402040  -0.356533
    I   I11   0.725980  0.989280  0.537480  -0.517965
    I   I12   0.733980  0.923510  0.626910  -0.427839
    I   I13   0.803080  0.303480  0.304560  -0.415886
    I   I14   0.652940  0.166980  0.323160  -0.476259
    I   I15   0.841890  0.433470  0.558600  -0.420177
    I   I16   0.579020  0.510700  0.597960  -0.356537
    I   I17   0.774020  0.489280  0.462520  -0.517993
    I   I18   0.766020  0.423510  0.373090  -0.427856
    I   I19   0.196920  0.196520  0.804560  -0.415895
    I   I20   0.347060  0.333020  0.823160  -0.476257
    I   I21   0.158110  0.066530  0.058600  -0.420122
    I   I22   0.420980  0.989300  0.097960  -0.356562
    I   I23   0.225980  0.010720  0.962520  -0.518023
    I   I24   0.233980  0.076490  0.873090  -0.427841
    N   N1    0.064900  0.708010  0.157940  -0.088853
    N   N2    0.485900  0.557950  0.079910  -0.220909
    N   N3    0.083700  0.569850  0.967730  -0.281613
    N   N4    0.816800  0.632300  0.090880  -0.591954
    N   N5    0.821900  0.597910  0.043410  -0.735241
    N   N6    0.964900  0.632080  0.063990  -0.655750
    N   N7    0.876100  0.880990  0.406500  -0.296649
    N   N8    0.064200  0.734780  0.226560  -0.069614
    N   N9    0.884500  0.537020  0.393460  -0.153680
    N   N10   0.947800  0.759820  0.328520  -0.686879
    N   N11   0.951200  0.674720  0.324830  -0.715611
    N   N12   0.912700  0.711920  0.370170  -0.714098
    N   N13   0.935100  0.791990  0.657940  -0.088894
    N   N14   0.514100  0.942050  0.579910  -0.220893
    N   N15   0.916300  0.930150  0.467730  -0.281495
    N   N16   0.183200  0.867700  0.590880  -0.591795
    N   N17   0.178100  0.902090  0.543410  -0.735271
    N   N18   0.035100  0.867920  0.563990  -0.655429
    N   N19   0.123900  0.619010  0.906500  -0.296636
    N   N20   0.935800  0.765220  0.726560  -0.069568
    N   N21   0.115500  0.962980  0.893460  -0.153647
    N   N22   0.052200  0.740180  0.828520  -0.686857
    N   N23   0.048800  0.825280  0.824830  -0.715606
    N   N24   0.087300  0.788080  0.870170  -0.714100
    N   N25   0.564900  0.291990  0.342060  -0.088863
    N   N26   0.985900  0.442050  0.420090  -0.220889
    N   N27   0.583700  0.430150  0.532270  -0.281716
    N   N28   0.316800  0.367700  0.409120  -0.591993
    N   N29   0.321900  0.402090  0.456590  -0.735272
    N   N30   0.464900  0.367920  0.436010  -0.655755
    N   N31   0.376100  0.119010  0.093500  -0.298588
    N   N32   0.564200  0.265220  0.273440  -0.069620
    N   N33   0.384500  0.462980  0.106540  -0.153800
    N   N34   0.447800  0.240180  0.171480  -0.686758
    N   N35   0.451200  0.325280  0.175170  -0.715665
    N   N36   0.412700  0.288080  0.129830  -0.714043
    N   N37   0.435100  0.208010  0.842060  -0.088830
    N   N38   0.014100  0.057950  0.920090  -0.220900
    N   N39   0.416300  0.069850  0.032270  -0.284002
    N   N40   0.683200  0.132300  0.909120  -0.591987
    N   N41   0.678100  0.097910  0.956590  -0.735048
    N   N42   0.535100  0.132080  0.936010  -0.655885
    N   N43   0.623900  0.380990  0.593500  -0.296614
    N   N44   0.435800  0.234780  0.773440  -0.069639
    N   N45   0.615500  0.037020  0.606540  -0.153744
    N   N46   0.552200  0.259820  0.671480  -0.686895
    N   N47   0.548800  0.174720  0.675170  -0.715694
    N   N48   0.587300  0.211920  0.629830  -0.714128
    Zn  Zn13  0.855200  0.255960  0.811060  0.537284
    Zn  Zn14  0.839110  0.442750  0.070460  0.580432
    Zn  Zn15  0.649690  0.472230  0.912800  0.587779
    Zn  Zn16  0.144800  0.244040  0.311060  0.537278
    Zn  Zn17  0.160890  0.057250  0.570470  0.579761
    Zn  Zn18  0.350310  0.027770  0.412800  0.587792
    Zn  Zn19  0.355200  0.744040  0.688940  0.537270
    Zn  Zn20  0.339110  0.557250  0.429530  0.579767
    Zn  Zn21  0.149690  0.527770  0.587200  0.587793
    Zn  Zn22  0.644800  0.755960  0.188940  0.537276
    Zn  Zn23  0.660890  0.942750  0.929530  0.579742
    Zn  Zn24  0.850310  0.972230  0.087200  0.587836
    H   H97   0.817600  0.311100  0.864200  0.092489
    H   H98   0.899200  0.346500  0.903500  0.082734
    H   H99   0.066900  0.281400  0.825500  0.111087
    H   H100  0.155000  0.317100  0.863100  0.036512
    H   H101  0.500800  0.413000  0.880600  0.111068
    H   H102  0.345000  0.382900  0.886400  0.273111
    H   H103  0.500000  0.464300  0.961100  0.101208
    H   H104  0.343600  0.435100  0.969100  0.153941
    H   H105  0.038400  0.462500  0.044600  -0.027448
    H   H106  0.132800  0.442200  0.004600  0.264414
    H   H107  0.809200  0.396200  0.011800  -0.055343
    H   H108  0.898200  0.372800  0.971000  0.071538
    H   H109  0.154200  0.164300  0.561500  0.004987
    H   H110  0.123300  0.234500  0.586900  0.137207
    H   H111  0.087600  0.086100  0.630300  0.029734
    H   H112  0.060500  0.153900  0.658300  0.099360
    H   H113  0.970500  0.196800  0.767900  0.200662
    H   H114  0.030300  0.204200  0.720400  0.112394
    H   H115  0.916500  0.335700  0.771600  0.140716
    H   H116  0.978700  0.346700  0.724700  0.126645
    H   H117  0.107000  0.487300  0.647100  0.114581
    H   H118  0.078800  0.414200  0.670000  0.120072
    H   H119  0.117500  0.424700  0.570000  0.081178
    H   H120  0.093500  0.350300  0.591200  0.129370
    H   H121  0.182400  0.188900  0.364200  0.092491
    H   H122  0.100800  0.153500  0.403500  0.082721
    H   H123  0.933100  0.218600  0.325500  0.111076
    H   H124  0.845000  0.182900  0.363100  0.036562
    H   H125  0.499200  0.087000  0.380600  0.111066
    H   H126  0.655000  0.117100  0.386400  0.273116
    H   H127  0.500000  0.035700  0.461100  0.101205
    H   H128  0.656400  0.064900  0.469100  0.153981
    H   H129  0.961600  0.037500  0.544600  -0.026844
    H   H130  0.867200  0.057800  0.504600  0.263961
    H   H131  0.190800  0.103800  0.511800  -0.055086
    H   H132  0.101800  0.127200  0.471000  0.071419
    H   H133  0.845800  0.335700  0.061500  0.004647
    H   H134  0.876700  0.265500  0.086900  0.137387
    H   H135  0.912400  0.413900  0.130300  0.029309
    H   H136  0.939500  0.346100  0.158300  0.099586
    H   H137  0.029500  0.303200  0.267900  0.200669
    H   H138  0.969700  0.295800  0.220400  0.112359
    H   H139  0.083500  0.164300  0.271600  0.140722
    H   H140  0.021300  0.153300  0.224700  0.126665
    H   H141  0.893000  0.012700  0.147100  0.114628
    H   H142  0.921200  0.085800  0.170000  0.119916
    H   H143  0.882500  0.075300  0.070000  0.081202
    H   H144  0.906500  0.149700  0.091200  0.129326
    H   H145  0.317600  0.688900  0.635800  0.092515
    H   H146  0.399200  0.653500  0.596500  0.082693
    H   H147  0.566900  0.718600  0.674500  0.111084
    H   H148  0.655000  0.682900  0.636900  0.036557
    H   H149  0.000800  0.587000  0.619400  0.111080
    H   H150  0.845000  0.617100  0.613600  0.273133
    H   H151  0.000000  0.535700  0.538900  0.101198
    H   H152  0.843600  0.564900  0.530900  0.153980
    H   H153  0.538400  0.537500  0.455400  -0.026741
    H   H154  0.632800  0.557800  0.495400  0.263937
    H   H155  0.309200  0.603800  0.488200  -0.055075
    H   H156  0.398200  0.627200  0.529000  0.071415
    H   H157  0.654200  0.835700  0.938500  0.005055
    H   H158  0.623300  0.765500  0.913100  0.137178
    H   H159  0.587600  0.913900  0.869700  0.029717
    H   H160  0.560500  0.846100  0.841700  0.099354
    H   H161  0.470500  0.803200  0.732100  0.200639
    H   H162  0.530300  0.795800  0.779600  0.112408
    H   H163  0.416500  0.664300  0.728400  0.140719
    H   H164  0.478700  0.653300  0.775300  0.126697
    H   H165  0.607000  0.512700  0.852900  0.114611
    H   H166  0.578800  0.585800  0.830000  0.119922
    H   H167  0.617500  0.575300  0.930000  0.081289
    H   H168  0.593500  0.649700  0.908800  0.129410
    H   H169  0.682400  0.811100  0.135800  0.092494
    H   H170  0.600800  0.846500  0.096500  0.082697
    H   H171  0.433100  0.781400  0.174500  0.111067
    H   H172  0.345000  0.817100  0.136900  0.036566
    H   H173  0.999200  0.913000  0.119400  0.111069
    H   H174  0.155000  0.882900  0.113600  0.273138
    H   H175  0.000000  0.964300  0.038900  0.101205
    H   H176  0.156400  0.935100  0.030900  0.153948
    H   H177  0.461600  0.962500  0.955400  -0.026772
    H   H178  0.367200  0.942200  0.995400  0.264123
    H   H179  0.690800  0.896200  0.988200  -0.055079
    H   H180  0.601800  0.872800  0.029000  0.071457
    H   H181  0.345800  0.664300  0.438500  0.004961
    H   H182  0.376700  0.734500  0.413100  0.137201
    H   H183  0.412400  0.586100  0.369700  0.029726
    H   H184  0.439500  0.653900  0.341700  0.099356
    H   H185  0.529500  0.696800  0.232100  0.200646
    H   H186  0.469700  0.704200  0.279600  0.112406
    H   H187  0.583500  0.835700  0.228400  0.140716
    H   H188  0.521300  0.846700  0.275300  0.126697
    H   H189  0.393000  0.987300  0.352900  0.114618
    H   H190  0.421200  0.914200  0.330000  0.119926
    H   H191  0.382500  0.924700  0.430000  0.081257
    H   H192  0.406500  0.850300  0.408800  0.129405
    C   C145  0.887000  0.311700  0.864300  -0.029961
    C   C146  0.935200  0.333230  0.887710  0.028094
    C   C147  0.032600  0.294600  0.841700  -0.033314
    C   C148  0.085700  0.315770  0.863990  -0.043336
    C   C149  0.035700  0.334990  0.887570  -0.071523
    C   C150  0.088400  0.357800  0.912380  0.740748
    C   C151  0.467900  0.417800  0.898700  0.056571
    C   C152  0.375300  0.399800  0.901930  -0.247600
    C   C153  0.467400  0.447750  0.945790  0.108135
    C   C154  0.374500  0.430600  0.950710  -0.105086
    C   C155  0.326400  0.406540  0.928240  -0.097496
    C   C156  0.223400  0.390620  0.931720  0.673084
    C   C157  0.010000  0.443750  0.029510  0.247286
    C   C158  0.066800  0.431730  0.005810  -0.338115
    C   C159  0.876300  0.404900  0.010480  0.484552
    C   C160  0.928800  0.391000  0.986010  -0.227555
    C   C161  0.026000  0.403860  0.983580  -0.009071
    C   C162  0.083800  0.390190  0.957320  0.758705
    C   C163  0.134200  0.162400  0.581420  0.141886
    C   C164  0.117200  0.204390  0.596430  -0.100289
    C   C165  0.096100  0.116730  0.621610  0.065921
    C   C166  0.079500  0.156880  0.638430  0.039016
    C   C167  0.091000  0.201820  0.625730  -0.154331
    C   C168  0.076100  0.246040  0.643220  0.772885
    C   C169  0.970600  0.227440  0.758730  -0.108689
    C   C170  0.006800  0.231620  0.730540  -0.070192
    C   C171  0.939500  0.308720  0.760960  -0.053828
    C   C172  0.976000  0.315470  0.732990  -0.071850
    C   C173  0.008200  0.276210  0.717320  -0.111831
    C   C174  0.039500  0.280990  0.686280  0.770304
    C   C175  0.104000  0.459050  0.635540  -0.039505
    C   C176  0.088000  0.415480  0.649430  -0.026032
    C   C177  0.110700  0.422630  0.590600  0.123506
    C   C178  0.096200  0.378120  0.603190  -0.144289
    C   C179  0.085800  0.374060  0.632850  -0.131396
    C   C180  0.073400  0.326710  0.646820  0.815339
    C   C181  0.113000  0.188300  0.364300  -0.029876
    C   C182  0.064800  0.166770  0.387710  0.027864
    C   C183  0.967400  0.205400  0.341700  -0.033249
    C   C184  0.914300  0.184230  0.363990  -0.043516
    C   C185  0.964300  0.165010  0.387570  -0.071167
    C   C186  0.911600  0.142200  0.412380  0.740480
    C   C187  0.532100  0.082200  0.398700  0.056596
    C   C188  0.624700  0.100200  0.401930  -0.247632
    C   C189  0.532600  0.052250  0.445790  0.108132
    C   C190  0.625500  0.069400  0.450710  -0.105104
    C   C191  0.673600  0.093460  0.428240  -0.097507
    C   C192  0.776600  0.109380  0.431720  0.673224
    C   C193  0.990000  0.056250  0.529510  0.244408
    C   C194  0.933200  0.068270  0.505810  -0.335905
    C   C195  0.123700  0.095100  0.510480  0.483100
    C   C196  0.071200  0.109000  0.486010  -0.226597
    C   C197  0.974000  0.096140  0.483580  -0.010446
    C   C198  0.916200  0.109810  0.457320  0.759077
    C   C199  0.865800  0.337600  0.081420  0.143514
    C   C200  0.882800  0.295610  0.096430  -0.101388
    C   C201  0.903900  0.383270  0.121610  0.067784
    C   C202  0.920500  0.343120  0.138430  0.037740
    C   C203  0.909000  0.298180  0.125730  -0.153331
    C   C204  0.923900  0.253960  0.143220  0.772529
    C   C205  0.029400  0.272560  0.258730  -0.108709
    C   C206  0.993200  0.268380  0.230540  -0.070156
    C   C207  0.060500  0.191280  0.260960  -0.053834
    C   C208  0.024000  0.184530  0.232990  -0.071878
    C   C209  0.991800  0.223790  0.217320  -0.111817
    C   C210  0.960500  0.219010  0.186280  0.770204
    C   C211  0.896000  0.040950  0.135540  -0.039646
    C   C212  0.912000  0.084520  0.149430  -0.025695
    C   C213  0.889300  0.077370  0.090600  0.123435
    C   C214  0.903800  0.121880  0.103190  -0.144155
    C   C215  0.914200  0.125940  0.132850  -0.131622
    C   C216  0.926600  0.173290  0.146820  0.815378
    C   C217  0.387000  0.688300  0.635700  -0.029937
    C   C218  0.435200  0.666770  0.612290  0.027940
    C   C219  0.532600  0.705400  0.658300  -0.033255
    C   C220  0.585700  0.684230  0.636010  -0.043517
    C   C221  0.535700  0.665010  0.612430  -0.071171
    C   C222  0.588400  0.642200  0.587620  0.740443
    C   C223  0.967900  0.582200  0.601300  0.056624
    C   C224  0.875300  0.600200  0.598070  -0.247692
    C   C225  0.967400  0.552250  0.554210  0.108141
    C   C226  0.874500  0.569400  0.549290  -0.105116
    C   C227  0.826400  0.593460  0.571760  -0.097466
    C   C228  0.723400  0.609380  0.568280  0.673186
    C   C229  0.510000  0.556250  0.470490  0.244214
    C   C230  0.566800  0.568270  0.494190  -0.335833
    C   C231  0.376300  0.595100  0.489520  0.483101
    C   C232  0.428800  0.609000  0.513990  -0.226614
    C   C233  0.526000  0.596140  0.516420  -0.010417
    C   C234  0.583800  0.609810  0.542680  0.759052
    C   C235  0.634200  0.837600  0.918580  0.141805
    C   C236  0.617200  0.795610  0.903570  -0.100246
    C   C237  0.596100  0.883270  0.878390  0.065980
    C   C238  0.579500  0.843120  0.861570  0.038986
    C   C239  0.591000  0.798180  0.874270  -0.154319
    C   C240  0.576100  0.753960  0.856780  0.772869
    C   C241  0.470600  0.772560  0.741270  -0.108683
    C   C242  0.506800  0.768380  0.769460  -0.070218
    C   C243  0.439500  0.691280  0.739040  -0.053848
    C   C244  0.476000  0.684530  0.767010  -0.071924
    C   C245  0.508200  0.723790  0.782680  -0.111780
    C   C246  0.539500  0.719010  0.813720  0.770224
    C   C247  0.604000  0.540950  0.864460  -0.039585
    C   C248  0.588000  0.584520  0.850570  -0.025841
    C   C249  0.610700  0.577370  0.909400  0.123337
    C   C250  0.596200  0.621880  0.896810  -0.144360
    C   C251  0.585800  0.625940  0.867150  -0.131342
    C   C252  0.573400  0.673290  0.853180  0.815265
    C   C253  0.613000  0.811700  0.135700  -0.029851
    C   C254  0.564800  0.833230  0.112290  0.027882
    C   C255  0.467400  0.794600  0.158300  -0.033224
    C   C256  0.414300  0.815770  0.136010  -0.043523
    C   C257  0.464300  0.834990  0.112430  -0.071162
    C   C258  0.411600  0.857800  0.087620  0.740434
    C   C259  0.032100  0.917800  0.101300  0.056623
    C   C260  0.124700  0.899800  0.098070  -0.247670
    C   C261  0.032600  0.947750  0.054210  0.108120
    C   C262  0.125500  0.930600  0.049290  -0.105064
    C   C263  0.173600  0.906540  0.071760  -0.097565
    C   C264  0.276600  0.890620  0.068280  0.673206
    C   C265  0.490000  0.943750  0.970490  0.244326
    C   C266  0.433200  0.931730  0.994190  -0.336196
    C   C267  0.623700  0.904900  0.989520  0.483111
    C   C268  0.571200  0.891000  0.013990  -0.226678
    C   C269  0.474000  0.903860  0.016420  -0.010343
    C   C270  0.416200  0.890190  0.042680  0.759050
    C   C271  0.365800  0.662400  0.418580  0.141964
    C   C272  0.382800  0.704390  0.403570  -0.100311
    C   C273  0.403900  0.616730  0.378390  0.065958
    C   C274  0.420500  0.656880  0.361570  0.038999
    C   C275  0.409000  0.701820  0.374270  -0.154331
    C   C276  0.423900  0.746040  0.356780  0.772892
    C   C277  0.529400  0.727440  0.241270  -0.108671
    C   C278  0.493200  0.731620  0.269460  -0.070226
    C   C279  0.560500  0.808720  0.239040  -0.053829
    C   C280  0.524000  0.815470  0.267010  -0.071937
    C   C281  0.491800  0.776210  0.282680  -0.111767
    C   C282  0.460500  0.780990  0.313720  0.770229
    C   C283  0.396000  0.959050  0.364460  -0.039578
    C   C284  0.412000  0.915480  0.350570  -0.025847
    C   C285  0.389300  0.922630  0.409400  0.123368
    C   C286  0.403800  0.878120  0.396810  -0.144354
    C   C287  0.414200  0.874060  0.367150  -0.131343
    C   C288  0.426600  0.826710  0.353180  0.815262
    I   I25   0.696920  0.303480  0.804560  -0.415895
    I   I26   0.847060  0.166980  0.823160  -0.476259
    I   I27   0.658110  0.433470  0.058600  -0.420121
    I   I28   0.920980  0.510700  0.097960  -0.356563
    I   I29   0.725980  0.489280  0.962520  -0.518023
    I   I30   0.733980  0.423510  0.873090  -0.427841
    I   I31   0.303080  0.196520  0.304560  -0.415889
    I   I32   0.152940  0.333020  0.323160  -0.476263
    I   I33   0.341890  0.066530  0.558600  -0.420180
    I   I34   0.079020  0.989300  0.597960  -0.356540
    I   I35   0.274020  0.010720  0.462520  -0.517993
    I   I36   0.266020  0.076490  0.373090  -0.427855
    I   I37   0.196920  0.696520  0.695440  -0.415897
    I   I38   0.347060  0.833020  0.676840  -0.476248
    I   I39   0.158110  0.566530  0.441400  -0.420214
    I   I40   0.420980  0.489300  0.402040  -0.356529
    I   I41   0.225980  0.510720  0.537480  -0.517965
    I   I42   0.233980  0.576490  0.626910  -0.427852
    I   I43   0.803080  0.803480  0.195440  -0.415899
    I   I44   0.652940  0.666980  0.176840  -0.476255
    I   I45   0.841890  0.933470  0.941400  -0.420214
    I   I46   0.579020  0.010700  0.902040  -0.356538
    I   I47   0.774020  0.989280  0.037480  -0.518016
    I   I48   0.766020  0.923510  0.126910  -0.427850
    N   N49   0.935100  0.291990  0.842060  -0.088826
    N   N50   0.514100  0.442050  0.920090  -0.220891
    N   N51   0.916300  0.430150  0.032270  -0.283999
    N   N52   0.183200  0.367700  0.909120  -0.591986
    N   N53   0.178100  0.402090  0.956590  -0.735043
    N   N54   0.035100  0.367920  0.936010  -0.655884
    N   N55   0.123900  0.119010  0.593500  -0.296618
    N   N56   0.935800  0.265220  0.773440  -0.069638
    N   N57   0.115500  0.462980  0.606540  -0.153737
    N   N58   0.052200  0.240180  0.671480  -0.686894
    N   N59   0.048800  0.325280  0.675170  -0.715692
    N   N60   0.087300  0.288080  0.629830  -0.714130
    N   N61   0.064900  0.208010  0.342060  -0.088859
    N   N62   0.485900  0.057950  0.420090  -0.220889
    N   N63   0.083700  0.069850  0.532270  -0.281722
    N   N64   0.816800  0.132300  0.409120  -0.591993
    N   N65   0.821900  0.097910  0.456590  -0.735287
    N   N66   0.964900  0.132080  0.436010  -0.655755
    N   N67   0.876100  0.380990  0.093500  -0.298581
    N   N68   0.064200  0.234780  0.273440  -0.069630
    N   N69   0.884500  0.037020  0.106540  -0.153745
    N   N70   0.947800  0.259820  0.171480  -0.686732
    N   N71   0.951200  0.174720  0.175170  -0.715628
    N   N72   0.912700  0.211920  0.129830  -0.714029
    N   N73   0.435100  0.708010  0.657940  -0.088854
    N   N74   0.014100  0.557950  0.579910  -0.220920
    N   N75   0.416300  0.569850  0.467730  -0.281667
    N   N76   0.683200  0.632300  0.590880  -0.591961
    N   N77   0.678100  0.597910  0.543410  -0.735261
    N   N78   0.535100  0.632080  0.563990  -0.655735
    N   N79   0.623900  0.880990  0.906500  -0.296624
    N   N80   0.435800  0.734780  0.726560  -0.069593
    N   N81   0.615500  0.537020  0.893460  -0.153652
    N   N82   0.552200  0.759820  0.828520  -0.686858
    N   N83   0.548800  0.674720  0.824830  -0.715612
    N   N84   0.587300  0.711920  0.870170  -0.714102
    N   N85   0.564900  0.791990  0.157940  -0.088893
    N   N86   0.985900  0.942050  0.079910  -0.220914
    N   N87   0.583700  0.930150  0.967730  -0.281620
    N   N88   0.316800  0.867700  0.090880  -0.591962
    N   N89   0.321900  0.902090  0.043410  -0.735241
    N   N90   0.464900  0.867920  0.063990  -0.655744
    N   N91   0.376100  0.619010  0.406500  -0.296665
    N   N92   0.564200  0.765220  0.226560  -0.069611
    N   N93   0.384500  0.962980  0.393460  -0.153684
    N   N94   0.447800  0.740180  0.328520  -0.686874
    N   N95   0.451200  0.825280  0.324830  -0.715613
    N   N96   0.412700  0.788080  0.370170  -0.714107
