# generated using pymatgen
data_ScH6(C2O)6
_symmetry_space_group_name_H-M   'P 1'
_cell_length_a   8.86410000
_cell_length_b   20.69800000
_cell_length_c   34.22900000
_cell_angle_alpha   90.00000000
_cell_angle_beta   90.00000000
_cell_angle_gamma   90.00000000
_symmetry_Int_Tables_number   1
_chemical_formula_structural   ScH6(C2O)6
_chemical_formula_sum   'Sc16 H96 C192 O96'
_cell_volume   6279.96525467
_cell_formula_units_Z   16
loop_
 _symmetry_equiv_pos_site_id
 _symmetry_equiv_pos_as_xyz
  1  'x, y, z'
loop_
 _atom_site_type_symbol
 _atom_site_label
 _atom_site_symmetry_multiplicity
 _atom_site_fract_x
 _atom_site_fract_y
 _atom_site_fract_z
 _atom_site_occupancy
  Sc  Sc1  1  0.37500000  0.37500000  0.63544000  1
  Sc  Sc2  1  0.62500000  0.12500000  0.86456000  1
  Sc  Sc3  1  0.12500000  0.62500000  0.86456000  1
  Sc  Sc4  1  0.12500000  0.12500000  0.36456000  1
  Sc  Sc5  1  0.62500000  0.62500000  0.88544000  1
  Sc  Sc6  1  0.62500000  0.12500000  0.38544000  1
  Sc  Sc7  1  0.12500000  0.62500000  0.38544000  1
  Sc  Sc8  1  0.12500000  0.12500000  0.88544000  1
  Sc  Sc9  1  0.37500000  0.87500000  0.13544000  1
  Sc  Sc10  1  0.87500000  0.37500000  0.13544000  1
  Sc  Sc11  1  0.87500000  0.87500000  0.63544000  1
  Sc  Sc12  1  0.37500000  0.37500000  0.11456000  1
  Sc  Sc13  1  0.37500000  0.87500000  0.61456000  1
  Sc  Sc14  1  0.87500000  0.37500000  0.61456000  1
  Sc  Sc15  1  0.87500000  0.87500000  0.11456000  1
  Sc  Sc16  1  0.62500000  0.62500000  0.36456000  1
  H  H1  1  0.25300000  0.27580000  0.74320000  1
  H  H2  1  0.75300000  0.77580000  0.74320000  1
  H  H3  1  0.67180000  0.71680000  0.79700000  1
  H  H4  1  0.85140000  0.06880000  0.62690000  1
  H  H5  1  0.49700000  0.47420000  0.74320000  1
  H  H6  1  0.57820000  0.53320000  0.79700000  1
  H  H7  1  0.39860000  0.18120000  0.62690000  1
  H  H8  1  0.49700000  0.97420000  0.24320000  1
  H  H9  1  0.57820000  0.03320000  0.29700000  1
  H  H10  1  0.39860000  0.68120000  0.12690000  1
  H  H11  1  0.99700000  0.47420000  0.24320000  1
  H  H12  1  0.17180000  0.21680000  0.79700000  1
  H  H13  1  0.07820000  0.53320000  0.29700000  1
  H  H14  1  0.89860000  0.18120000  0.12690000  1
  H  H15  1  0.99700000  0.97420000  0.74320000  1
  H  H16  1  0.07820000  0.03320000  0.79700000  1
  H  H17  1  0.89860000  0.68120000  0.62690000  1
  H  H18  1  0.49700000  0.27580000  0.00680000  1
  H  H19  1  0.57820000  0.21680000  0.95300000  1
  H  H20  1  0.39860000  0.56880000  0.12310000  1
  H  H21  1  0.49700000  0.77580000  0.50680000  1
  H  H22  1  0.57820000  0.71680000  0.45300000  1
  H  H23  1  0.35140000  0.56880000  0.62690000  1
  H  H24  1  0.39860000  0.06880000  0.62310000  1
  H  H25  1  0.99700000  0.27580000  0.50680000  1
  H  H26  1  0.07820000  0.21680000  0.45300000  1
  H  H27  1  0.89860000  0.56880000  0.62310000  1
  H  H28  1  0.99700000  0.77580000  0.00680000  1
  H  H29  1  0.07820000  0.71680000  0.95300000  1
  H  H30  1  0.89860000  0.06880000  0.12310000  1
  H  H31  1  0.25300000  0.47420000  0.00680000  1
  H  H32  1  0.17180000  0.53320000  0.95300000  1
  H  H33  1  0.35140000  0.18120000  0.12310000  1
  H  H34  1  0.25300000  0.77580000  0.24320000  1
  H  H35  1  0.25300000  0.97420000  0.50680000  1
  H  H36  1  0.17180000  0.03320000  0.45300000  1
  H  H37  1  0.35140000  0.68120000  0.62310000  1
  H  H38  1  0.75300000  0.47420000  0.50680000  1
  H  H39  1  0.67180000  0.53320000  0.45300000  1
  H  H40  1  0.85140000  0.18120000  0.62310000  1
  H  H41  1  0.75300000  0.97420000  0.00680000  1
  H  H42  1  0.67180000  0.03320000  0.95300000  1
  H  H43  1  0.85140000  0.68120000  0.12310000  1
  H  H44  1  0.74700000  0.72420000  0.25680000  1
  H  H45  1  0.17180000  0.71680000  0.29700000  1
  H  H46  1  0.82820000  0.78320000  0.20300000  1
  H  H47  1  0.64860000  0.43120000  0.37310000  1
  H  H48  1  0.74700000  0.22420000  0.75680000  1
  H  H49  1  0.82820000  0.28320000  0.70300000  1
  H  H50  1  0.64860000  0.93120000  0.87310000  1
  H  H51  1  0.24700000  0.72420000  0.75680000  1
  H  H52  1  0.32820000  0.78320000  0.70300000  1
  H  H53  1  0.14860000  0.43120000  0.87310000  1
  H  H54  1  0.24700000  0.22420000  0.25680000  1
  H  H55  1  0.32820000  0.28320000  0.20300000  1
  H  H56  1  0.35140000  0.06880000  0.12690000  1
  H  H57  1  0.14860000  0.93120000  0.37310000  1
  H  H58  1  0.50300000  0.52580000  0.25680000  1
  H  H59  1  0.42180000  0.46680000  0.20300000  1
  H  H60  1  0.60140000  0.81880000  0.37310000  1
  H  H61  1  0.50300000  0.02580000  0.75680000  1
  H  H62  1  0.42180000  0.96680000  0.70300000  1
  H  H63  1  0.60140000  0.31880000  0.87310000  1
  H  H64  1  0.00300000  0.52580000  0.75680000  1
  H  H65  1  0.92180000  0.46680000  0.70300000  1
  H  H66  1  0.10140000  0.81880000  0.87310000  1
  H  H67  1  0.75300000  0.27580000  0.24320000  1
  H  H68  1  0.00300000  0.02580000  0.25680000  1
  H  H69  1  0.92180000  0.96680000  0.20300000  1
  H  H70  1  0.10140000  0.31880000  0.37310000  1
  H  H71  1  0.50300000  0.72420000  0.99320000  1
  H  H72  1  0.42180000  0.78320000  0.04700000  1
  H  H73  1  0.60140000  0.43120000  0.87690000  1
  H  H74  1  0.50300000  0.22420000  0.49320000  1
  H  H75  1  0.42180000  0.28320000  0.54700000  1
  H  H76  1  0.60140000  0.93120000  0.37690000  1
  H  H77  1  0.00300000  0.72420000  0.49320000  1
  H  H78  1  0.67180000  0.21680000  0.29700000  1
  H  H79  1  0.92180000  0.78320000  0.54700000  1
  H  H80  1  0.10140000  0.43120000  0.37690000  1
  H  H81  1  0.00300000  0.22420000  0.99320000  1
  H  H82  1  0.92180000  0.28320000  0.04700000  1
  H  H83  1  0.10140000  0.93120000  0.87690000  1
  H  H84  1  0.74700000  0.52580000  0.99320000  1
  H  H85  1  0.82820000  0.46680000  0.04700000  1
  H  H86  1  0.64860000  0.81880000  0.87690000  1
  H  H87  1  0.74700000  0.02580000  0.49320000  1
  H  H88  1  0.82820000  0.96680000  0.54700000  1
  H  H89  1  0.85140000  0.56880000  0.12690000  1
  H  H90  1  0.64860000  0.31880000  0.37690000  1
  H  H91  1  0.24700000  0.52580000  0.49320000  1
  H  H92  1  0.32820000  0.46680000  0.54700000  1
  H  H93  1  0.14860000  0.81880000  0.37690000  1
  H  H94  1  0.24700000  0.02580000  0.99320000  1
  H  H95  1  0.32820000  0.96680000  0.04700000  1
  H  H96  1  0.14860000  0.31880000  0.87690000  1
  C  C1  1  0.10250000  0.32040000  0.68220000  1
  C  C2  1  0.25850000  0.09150000  0.12560000  1
  C  C3  1  0.24150000  0.90850000  0.37440000  1
  C  C4  1  0.35250000  0.57040000  0.31780000  1
  C  C5  1  0.29970000  0.53300000  0.28280000  1
  C  C6  1  0.39930000  0.51510000  0.25420000  1
  C  C7  1  0.35070000  0.48120000  0.22180000  1
  C  C8  1  0.50850000  0.84150000  0.37440000  1
  C  C9  1  0.35250000  0.07040000  0.81780000  1
  C  C10  1  0.29970000  0.03300000  0.78280000  1
  C  C11  1  0.39930000  0.01510000  0.75420000  1
  C  C12  1  0.35070000  0.98120000  0.72180000  1
  C  C13  1  0.60250000  0.32040000  0.18220000  1
  C  C14  1  0.50850000  0.34150000  0.87440000  1
  C  C15  1  0.85250000  0.57040000  0.81780000  1
  C  C16  1  0.79970000  0.53300000  0.78280000  1
  C  C17  1  0.89930000  0.51510000  0.75420000  1
  C  C18  1  0.85070000  0.48120000  0.72180000  1
  C  C19  1  0.00850000  0.84150000  0.87440000  1
  C  C20  1  0.85250000  0.07040000  0.31780000  1
  C  C21  1  0.79970000  0.03300000  0.28280000  1
  C  C22  1  0.89930000  0.01510000  0.25420000  1
  C  C23  1  0.85070000  0.98120000  0.22180000  1
  C  C24  1  0.54970000  0.28300000  0.21720000  1
  C  C25  1  0.00850000  0.34150000  0.37440000  1
  C  C26  1  0.35250000  0.67960000  0.93220000  1
  C  C27  1  0.29970000  0.71700000  0.96720000  1
  C  C28  1  0.39930000  0.73490000  0.99580000  1
  C  C29  1  0.35070000  0.76880000  0.02820000  1
  C  C30  1  0.50850000  0.40850000  0.87560000  1
  C  C31  1  0.35250000  0.17960000  0.43220000  1
  C  C32  1  0.29970000  0.21700000  0.46720000  1
  C  C33  1  0.39930000  0.23490000  0.49580000  1
  C  C34  1  0.35070000  0.26880000  0.52820000  1
  C  C35  1  0.64930000  0.26510000  0.24580000  1
  C  C36  1  0.50850000  0.90850000  0.37560000  1
  C  C37  1  0.85250000  0.67960000  0.43220000  1
  C  C38  1  0.79970000  0.71700000  0.46720000  1
  C  C39  1  0.89930000  0.73490000  0.49580000  1
  C  C40  1  0.85070000  0.76880000  0.52820000  1
  C  C41  1  0.00850000  0.40850000  0.37560000  1
  C  C42  1  0.85250000  0.17960000  0.93220000  1
  C  C43  1  0.79970000  0.21700000  0.96720000  1
  C  C44  1  0.89930000  0.23490000  0.99580000  1
  C  C45  1  0.85070000  0.26880000  0.02820000  1
  C  C46  1  0.60070000  0.23120000  0.27820000  1
  C  C47  1  0.00850000  0.90850000  0.87560000  1
  C  C48  1  0.89750000  0.57040000  0.93220000  1
  C  C49  1  0.95030000  0.53300000  0.96720000  1
  C  C50  1  0.85070000  0.51510000  0.99580000  1
  C  C51  1  0.89930000  0.48120000  0.02820000  1
  C  C52  1  0.74150000  0.84150000  0.87560000  1
  C  C53  1  0.89750000  0.07040000  0.43220000  1
  C  C54  1  0.95030000  0.03300000  0.46720000  1
  C  C55  1  0.85070000  0.01510000  0.49580000  1
  C  C56  1  0.89930000  0.98120000  0.52820000  1
  C  C57  1  0.75850000  0.59150000  0.12560000  1
  C  C58  1  0.74150000  0.34150000  0.37560000  1
  C  C59  1  0.39750000  0.57040000  0.43220000  1
  C  C60  1  0.45030000  0.53300000  0.46720000  1
  C  C61  1  0.35070000  0.51510000  0.49580000  1
  C  C62  1  0.39930000  0.48120000  0.52820000  1
  C  C63  1  0.24150000  0.84150000  0.37560000  1
  C  C64  1  0.39750000  0.07040000  0.93220000  1
  C  C65  1  0.45030000  0.03300000  0.96720000  1
  C  C66  1  0.35070000  0.01510000  0.99580000  1
  C  C67  1  0.39930000  0.98120000  0.02820000  1
  C  C68  1  0.60250000  0.82040000  0.68220000  1
  C  C69  1  0.24150000  0.34150000  0.87560000  1
  C  C70  1  0.12500000  0.48580000  0.62500000  1
  C  C71  1  0.12500000  0.55800000  0.62500000  1
  C  C72  1  0.12500000  0.98580000  0.12500000  1
  C  C73  1  0.12500000  0.05800000  0.12500000  1
  C  C74  1  0.62500000  0.98580000  0.62500000  1
  C  C75  1  0.62500000  0.05800000  0.62500000  1
  C  C76  1  0.62500000  0.26420000  0.62500000  1
  C  C77  1  0.62500000  0.19200000  0.62500000  1
  C  C78  1  0.62500000  0.76420000  0.12500000  1
  C  C79  1  0.54970000  0.78300000  0.71720000  1
  C  C80  1  0.62500000  0.69200000  0.12500000  1
  C  C81  1  0.62500000  0.48580000  0.12500000  1
  C  C82  1  0.62500000  0.55800000  0.12500000  1
  C  C83  1  0.12500000  0.26420000  0.12500000  1
  C  C84  1  0.12500000  0.19200000  0.12500000  1
  C  C85  1  0.12500000  0.76420000  0.62500000  1
  C  C86  1  0.12500000  0.69200000  0.62500000  1
  C  C87  1  0.87500000  0.51420000  0.37500000  1
  C  C88  1  0.87500000  0.44200000  0.37500000  1
  C  C89  1  0.87500000  0.01420000  0.87500000  1
  C  C90  1  0.64930000  0.76510000  0.74580000  1
  C  C91  1  0.87500000  0.94200000  0.87500000  1
  C  C92  1  0.37500000  0.73580000  0.37500000  1
  C  C93  1  0.37500000  0.80800000  0.37500000  1
  C  C94  1  0.37500000  0.23580000  0.87500000  1
  C  C95  1  0.37500000  0.30800000  0.87500000  1
  C  C96  1  0.37500000  0.51420000  0.87500000  1
  C  C97  1  0.37500000  0.44200000  0.87500000  1
  C  C98  1  0.37500000  0.01420000  0.37500000  1
  C  C99  1  0.37500000  0.94200000  0.37500000  1
  C  C100  1  0.87500000  0.73580000  0.87500000  1
  C  C101  1  0.60070000  0.73120000  0.77820000  1
  C  C102  1  0.87500000  0.80800000  0.87500000  1
  C  C103  1  0.87500000  0.23580000  0.37500000  1
  C  C104  1  0.87500000  0.30800000  0.37500000  1
  C  C105  1  0.04970000  0.28300000  0.71720000  1
  C  C106  1  0.75850000  0.09150000  0.62560000  1
  C  C107  1  0.64750000  0.42960000  0.68220000  1
  C  C108  1  0.70030000  0.46700000  0.71720000  1
  C  C109  1  0.60070000  0.48490000  0.74580000  1
  C  C110  1  0.64930000  0.51880000  0.77820000  1
  C  C111  1  0.49150000  0.15850000  0.62560000  1
  C  C112  1  0.64750000  0.92960000  0.18220000  1
  C  C113  1  0.70030000  0.96700000  0.21720000  1
  C  C114  1  0.60070000  0.98490000  0.24580000  1
  C  C115  1  0.64930000  0.01880000  0.27820000  1
  C  C116  1  0.14930000  0.26510000  0.74580000  1
  C  C117  1  0.49150000  0.65850000  0.12560000  1
  C  C118  1  0.14750000  0.42960000  0.18220000  1
  C  C119  1  0.20030000  0.46700000  0.21720000  1
  C  C120  1  0.10070000  0.48490000  0.24580000  1
  C  C121  1  0.14930000  0.51880000  0.27820000  1
  C  C122  1  0.99150000  0.15850000  0.12560000  1
  C  C123  1  0.14750000  0.92960000  0.68220000  1
  C  C124  1  0.20030000  0.96700000  0.71720000  1
  C  C125  1  0.10070000  0.98490000  0.74580000  1
  C  C126  1  0.14930000  0.01880000  0.77820000  1
  C  C127  1  0.10070000  0.23120000  0.77820000  1
  C  C128  1  0.99150000  0.65850000  0.62560000  1
  C  C129  1  0.64750000  0.32040000  0.06780000  1
  C  C130  1  0.70030000  0.28300000  0.03280000  1
  C  C131  1  0.60070000  0.26510000  0.00420000  1
  C  C132  1  0.64930000  0.23120000  0.97180000  1
  C  C133  1  0.49150000  0.59150000  0.12440000  1
  C  C134  1  0.64750000  0.82040000  0.56780000  1
  C  C135  1  0.70030000  0.78300000  0.53280000  1
  C  C136  1  0.60070000  0.76510000  0.50420000  1
  C  C137  1  0.64930000  0.73120000  0.47180000  1
  C  C138  1  0.25850000  0.59150000  0.62560000  1
  C  C139  1  0.49150000  0.09150000  0.62440000  1
  C  C140  1  0.14750000  0.32040000  0.56780000  1
  C  C141  1  0.20030000  0.28300000  0.53280000  1
  C  C142  1  0.10070000  0.26510000  0.50420000  1
  C  C143  1  0.14930000  0.23120000  0.47180000  1
  C  C144  1  0.99150000  0.59150000  0.62440000  1
  C  C145  1  0.14750000  0.82040000  0.06780000  1
  C  C146  1  0.20030000  0.78300000  0.03280000  1
  C  C147  1  0.10070000  0.76510000  0.00420000  1
  C  C148  1  0.14930000  0.73120000  0.97180000  1
  C  C149  1  0.10250000  0.82040000  0.18220000  1
  C  C150  1  0.99150000  0.09150000  0.12440000  1
  C  C151  1  0.10250000  0.42960000  0.06780000  1
  C  C152  1  0.04970000  0.46700000  0.03280000  1
  C  C153  1  0.14930000  0.48490000  0.00420000  1
  C  C154  1  0.10070000  0.51880000  0.97180000  1
  C  C155  1  0.25850000  0.15850000  0.12440000  1
  C  C156  1  0.10250000  0.92960000  0.56780000  1
  C  C157  1  0.04970000  0.96700000  0.53280000  1
  C  C158  1  0.14930000  0.98490000  0.50420000  1
  C  C159  1  0.10070000  0.01880000  0.47180000  1
  C  C160  1  0.04970000  0.78300000  0.21720000  1
  C  C161  1  0.25850000  0.65850000  0.62440000  1
  C  C162  1  0.60250000  0.42960000  0.56780000  1
  C  C163  1  0.54970000  0.46700000  0.53280000  1
  C  C164  1  0.64930000  0.48490000  0.50420000  1
  C  C165  1  0.60070000  0.51880000  0.47180000  1
  C  C166  1  0.75850000  0.15850000  0.62440000  1
  C  C167  1  0.60250000  0.92960000  0.06780000  1
  C  C168  1  0.54970000  0.96700000  0.03280000  1
  C  C169  1  0.64930000  0.98490000  0.00420000  1
  C  C170  1  0.60070000  0.01880000  0.97180000  1
  C  C171  1  0.14930000  0.76510000  0.24580000  1
  C  C172  1  0.75850000  0.65850000  0.12440000  1
  C  C173  1  0.89750000  0.67960000  0.31780000  1
  C  C174  1  0.95030000  0.71700000  0.28280000  1
  C  C175  1  0.85070000  0.73490000  0.25420000  1
  C  C176  1  0.89930000  0.76880000  0.22180000  1
  C  C177  1  0.74150000  0.40850000  0.37440000  1
  C  C178  1  0.89750000  0.17960000  0.81780000  1
  C  C179  1  0.95030000  0.21700000  0.78280000  1
  C  C180  1  0.85070000  0.23490000  0.75420000  1
  C  C181  1  0.89930000  0.26880000  0.72180000  1
  C  C182  1  0.10070000  0.73120000  0.27820000  1
  C  C183  1  0.74150000  0.90850000  0.87440000  1
  C  C184  1  0.39750000  0.67960000  0.81780000  1
  C  C185  1  0.45030000  0.71700000  0.78280000  1
  C  C186  1  0.35070000  0.73490000  0.75420000  1
  C  C187  1  0.39930000  0.76880000  0.72180000  1
  C  C188  1  0.24150000  0.40850000  0.87440000  1
  C  C189  1  0.39750000  0.17960000  0.31780000  1
  C  C190  1  0.45030000  0.21700000  0.28280000  1
  C  C191  1  0.35070000  0.23490000  0.25420000  1
  C  C192  1  0.39930000  0.26880000  0.22180000  1
  O  O1  1  0.24100000  0.33310000  0.67910000  1
  O  O2  1  0.74100000  0.83310000  0.67910000  1
  O  O3  1  0.50720000  0.83610000  0.65750000  1
  O  O4  1  0.74460000  0.95760000  0.63450000  1
  O  O5  1  0.50900000  0.41690000  0.67910000  1
  O  O6  1  0.74280000  0.41390000  0.65750000  1
  O  O7  1  0.50540000  0.29240000  0.63450000  1
  O  O8  1  0.50900000  0.91690000  0.17910000  1
  O  O9  1  0.74280000  0.91390000  0.15750000  1
  O  O10  1  0.50540000  0.79240000  0.13450000  1
  O  O11  1  0.00900000  0.41690000  0.17910000  1
  O  O12  1  0.00720000  0.33610000  0.65750000  1
  O  O13  1  0.24280000  0.41390000  0.15750000  1
  O  O14  1  0.00540000  0.29240000  0.13450000  1
  O  O15  1  0.00900000  0.91690000  0.67910000  1
  O  O16  1  0.24280000  0.91390000  0.65750000  1
  O  O17  1  0.00540000  0.79240000  0.63450000  1
  O  O18  1  0.50900000  0.33310000  0.07090000  1
  O  O19  1  0.74280000  0.33610000  0.09250000  1
  O  O20  1  0.50540000  0.45760000  0.11550000  1
  O  O21  1  0.50900000  0.83310000  0.57090000  1
  O  O22  1  0.74280000  0.83610000  0.59250000  1
  O  O23  1  0.24460000  0.45760000  0.63450000  1
  O  O24  1  0.50540000  0.95760000  0.61550000  1
  O  O25  1  0.00900000  0.33310000  0.57090000  1
  O  O26  1  0.24280000  0.33610000  0.59250000  1
  O  O27  1  0.00540000  0.45760000  0.61550000  1
  O  O28  1  0.00900000  0.83310000  0.07090000  1
  O  O29  1  0.24280000  0.83610000  0.09250000  1
  O  O30  1  0.00540000  0.95760000  0.11550000  1
  O  O31  1  0.24100000  0.41690000  0.07090000  1
  O  O32  1  0.00720000  0.41390000  0.09250000  1
  O  O33  1  0.24460000  0.29240000  0.11550000  1
  O  O34  1  0.24100000  0.83310000  0.17910000  1
  O  O35  1  0.24100000  0.91690000  0.57090000  1
  O  O36  1  0.00720000  0.91390000  0.59250000  1
  O  O37  1  0.24460000  0.79240000  0.61550000  1
  O  O38  1  0.74100000  0.41690000  0.57090000  1
  O  O39  1  0.50720000  0.41390000  0.59250000  1
  O  O40  1  0.74460000  0.29240000  0.61550000  1
  O  O41  1  0.74100000  0.91690000  0.07090000  1
  O  O42  1  0.50720000  0.91390000  0.09250000  1
  O  O43  1  0.74460000  0.79240000  0.11550000  1
  O  O44  1  0.75900000  0.66690000  0.32090000  1
  O  O45  1  0.00720000  0.83610000  0.15750000  1
  O  O46  1  0.99280000  0.66390000  0.34250000  1
  O  O47  1  0.75540000  0.54240000  0.36550000  1
  O  O48  1  0.75900000  0.16690000  0.82090000  1
  O  O49  1  0.99280000  0.16390000  0.84250000  1
  O  O50  1  0.75540000  0.04240000  0.86550000  1
  O  O51  1  0.25900000  0.66690000  0.82090000  1
  O  O52  1  0.49280000  0.66390000  0.84250000  1
  O  O53  1  0.25540000  0.54240000  0.86550000  1
  O  O54  1  0.25900000  0.16690000  0.32090000  1
  O  O55  1  0.49280000  0.16390000  0.34250000  1
  O  O56  1  0.24460000  0.95760000  0.13450000  1
  O  O57  1  0.25540000  0.04240000  0.36550000  1
  O  O58  1  0.49100000  0.58310000  0.32090000  1
  O  O59  1  0.25720000  0.58610000  0.34250000  1
  O  O60  1  0.49460000  0.70760000  0.36550000  1
  O  O61  1  0.49100000  0.08310000  0.82090000  1
  O  O62  1  0.25720000  0.08610000  0.84250000  1
  O  O63  1  0.49460000  0.20760000  0.86550000  1
  O  O64  1  0.99100000  0.58310000  0.82090000  1
  O  O65  1  0.75720000  0.58610000  0.84250000  1
  O  O66  1  0.99460000  0.70760000  0.86550000  1
  O  O67  1  0.74100000  0.33310000  0.17910000  1
  O  O68  1  0.99100000  0.08310000  0.32090000  1
  O  O69  1  0.75720000  0.08610000  0.34250000  1
  O  O70  1  0.99460000  0.20760000  0.36550000  1
  O  O71  1  0.49100000  0.66690000  0.92910000  1
  O  O72  1  0.25720000  0.66390000  0.90750000  1
  O  O73  1  0.49460000  0.54240000  0.88450000  1
  O  O74  1  0.49100000  0.16690000  0.42910000  1
  O  O75  1  0.25720000  0.16390000  0.40750000  1
  O  O76  1  0.49460000  0.04240000  0.38450000  1
  O  O77  1  0.99100000  0.66690000  0.42910000  1
  O  O78  1  0.50720000  0.33610000  0.15750000  1
  O  O79  1  0.75720000  0.66390000  0.40750000  1
  O  O80  1  0.99460000  0.54240000  0.38450000  1
  O  O81  1  0.99100000  0.16690000  0.92910000  1
  O  O82  1  0.75720000  0.16390000  0.90750000  1
  O  O83  1  0.99460000  0.04240000  0.88450000  1
  O  O84  1  0.75900000  0.58310000  0.92910000  1
  O  O85  1  0.99280000  0.58610000  0.90750000  1
  O  O86  1  0.75540000  0.70760000  0.88450000  1
  O  O87  1  0.75900000  0.08310000  0.42910000  1
  O  O88  1  0.99280000  0.08610000  0.40750000  1
  O  O89  1  0.74460000  0.45760000  0.13450000  1
  O  O90  1  0.75540000  0.20760000  0.38450000  1
  O  O91  1  0.25900000  0.58310000  0.42910000  1
  O  O92  1  0.49280000  0.58610000  0.40750000  1
  O  O93  1  0.25540000  0.70760000  0.38450000  1
  O  O94  1  0.25900000  0.08310000  0.92910000  1
  O  O95  1  0.49280000  0.08610000  0.90750000  1
  O  O96  1  0.25540000  0.20760000  0.88450000  1
