# generated using pymatgen
data_LiH4C6NO2
_symmetry_space_group_name_H-M   'P 1'
_cell_length_a   5.39920000
_cell_length_b   11.14080000
_cell_length_c   13.68110000
_cell_angle_alpha   90.88500000
_cell_angle_beta   94.25000000
_cell_angle_gamma   91.82500000
_symmetry_Int_Tables_number   1
_chemical_formula_structural   LiH4C6NO2
_chemical_formula_sum   'Li4 H16 C24 N4 O8'
_cell_volume   820.12732507
_cell_formula_units_Z   4
loop_
 _symmetry_equiv_pos_site_id
 _symmetry_equiv_pos_as_xyz
  1  'x, y, z'
loop_
 _atom_site_type_symbol
 _atom_site_label
 _atom_site_symmetry_multiplicity
 _atom_site_fract_x
 _atom_site_fract_y
 _atom_site_fract_z
 _atom_site_occupancy
  Li  Li1  1  0.81520000  0.51330000  0.06430000  1
  Li  Li2  1  0.19670000  0.01620000  0.44250000  1
  Li  Li3  1  0.18480000  0.48670000  0.93570000  1
  Li  Li4  1  0.80330000  0.98380000  0.55750000  1
  H  H1  1  0.55440000  0.83950000  0.38280000  1
  H  H2  1  0.90440000  0.91460000  0.25450000  1
  H  H3  1  0.94340000  0.77130000  0.13210000  1
  H  H4  1  0.62050000  0.69980000  0.26120000  1
  H  H5  1  0.05040000  0.15710000  0.27740000  1
  H  H6  1  0.09430000  0.29810000  0.15670000  1
  H  H7  1  0.49870000  0.46130000  0.22750000  1
  H  H8  1  0.42560000  0.32110000  0.34580000  1
  H  H9  1  0.44560000  0.16050000  0.61720000  1
  H  H10  1  0.09560000  0.08540000  0.74550000  1
  H  H11  1  0.05660000  0.22870000  0.86790000  1
  H  H12  1  0.37950000  0.30020000  0.73880000  1
  H  H13  1  0.94960000  0.84290000  0.72260000  1
  H  H14  1  0.90570000  0.70190000  0.84330000  1
  H  H15  1  0.50130000  0.53870000  0.77250000  1
  H  H16  1  0.57440000  0.67890000  0.65420000  1
  C  C1  1  0.43040000  0.82680000  0.33040000  1
  C  C2  1  0.05120000  0.86970000  0.25620000  1
  C  C3  1  0.07390000  0.78530000  0.18190000  1
  C  C4  1  0.47100000  0.74270000  0.25830000  1
  C  C5  1  0.29050000  0.72190000  0.18169000  1
  C  C6  1  0.33510000  0.63300000  0.09965000  1
  C  C7  1  0.68130000  0.13130000  0.40281000  1
  C  C8  1  0.73010000  0.22260000  0.32461000  1
  C  C9  1  0.93190000  0.21780000  0.26760000  1
  C  C10  1  0.95740000  0.30330000  0.19620000  1
  C  C11  1  0.61010000  0.39750000  0.23670000  1
  C  C12  1  0.56600000  0.31490000  0.30830000  1
  C  C13  1  0.56960000  0.17320000  0.66960000  1
  C  C14  1  0.94880000  0.13030000  0.74380000  1
  C  C15  1  0.92610000  0.21470000  0.81810000  1
  C  C16  1  0.52900000  0.25730000  0.74170000  1
  C  C17  1  0.70950000  0.27810000  0.81831000  1
  C  C18  1  0.66490000  0.36700000  0.90035000  1
  C  C19  1  0.31870000  0.86870000  0.59719000  1
  C  C20  1  0.26990000  0.77740000  0.67539000  1
  C  C21  1  0.06810000  0.78220000  0.73240000  1
  C  C22  1  0.04260000  0.69670000  0.80380000  1
  C  C23  1  0.38990000  0.60250000  0.76330000  1
  C  C24  1  0.43400000  0.68510000  0.69170000  1
  N  N1  1  0.22420000  0.89130000  0.32999000  1
  N  N2  1  0.80070000  0.39270000  0.17936000  1
  N  N3  1  0.77580000  0.10870000  0.67001000  1
  N  N4  1  0.19930000  0.60730000  0.82064000  1
  O  O1  1  0.46740000  0.12653000  0.43144000  1
  O  O2  1  0.14760000  0.58402000  0.05404000  1
  O  O3  1  0.55550000  0.61740000  0.08421000  1
  O  O4  1  0.85730000  0.06688000  0.43295000  1
  O  O5  1  0.53260000  0.87347000  0.56856000  1
  O  O6  1  0.85240000  0.41598000  0.94596000  1
  O  O7  1  0.44450000  0.38260000  0.91579000  1
  O  O8  1  0.14270000  0.93312000  0.56705000  1
