# generated using pymatgen
data_Cu(CO2)3
_symmetry_space_group_name_H-M   'P 1'
_cell_length_a   8.69870000
_cell_length_b   34.14080000
_cell_length_c   8.60810000
_cell_angle_alpha   90.00000000
_cell_angle_beta   107.57800000
_cell_angle_gamma   90.00000000
_symmetry_Int_Tables_number   1
_chemical_formula_structural   Cu(CO2)3
_chemical_formula_sum   'Cu8 C24 O48'
_cell_volume   2437.06995253
_cell_formula_units_Z   8
loop_
 _symmetry_equiv_pos_site_id
 _symmetry_equiv_pos_as_xyz
  1  'x, y, z'
loop_
 _atom_site_type_symbol
 _atom_site_label
 _atom_site_symmetry_multiplicity
 _atom_site_fract_x
 _atom_site_fract_y
 _atom_site_fract_z
 _atom_site_occupancy
  Cu  Cu1  1  0.74864000  0.20347000  0.48079000  1
  Cu  Cu2  1  0.73785000  0.04553000  0.49830000  1
  Cu  Cu3  1  0.25136000  0.70347000  0.01921000  1
  Cu  Cu4  1  0.26215000  0.54553000  0.00170000  1
  Cu  Cu5  1  0.25136000  0.79653000  0.51921000  1
  Cu  Cu6  1  0.26215000  0.95447000  0.50170000  1
  Cu  Cu7  1  0.74864000  0.29653000  0.98079000  1
  Cu  Cu8  1  0.73785000  0.45447000  0.99830000  1
  C  C1  1  0.81780000  0.12323000  0.56220000  1
  C  C2  1  0.66950000  0.12595000  0.40530000  1
  C  C3  1  0.81040000  0.25863000  0.71930000  1
  C  C4  1  0.66000000  0.23616000  0.73230000  1
  C  C5  1  0.99990000  0.01136000  0.42110000  1
  C  C6  1  0.48490000  0.01226000  0.56950000  1
  C  C7  1  0.18220000  0.62323000  0.93780000  1
  C  C8  1  0.33050000  0.62595000  0.09470000  1
  C  C9  1  0.18960000  0.75863000  0.78070000  1
  C  C10  1  0.34000000  0.73616000  0.76770000  1
  C  C11  1  0.00010000  0.51136000  0.07890000  1
  C  C12  1  0.51510000  0.51226000  0.93050000  1
  C  C13  1  0.18220000  0.87677000  0.43780000  1
  C  C14  1  0.33050000  0.87405000  0.59470000  1
  C  C15  1  0.18960000  0.74137000  0.28070000  1
  C  C16  1  0.34000000  0.76384000  0.26770000  1
  C  C17  1  0.00010000  0.98864000  0.57890000  1
  C  C18  1  0.51510000  0.98774000  0.43050000  1
  C  C19  1  0.81780000  0.37677000  0.06220000  1
  C  C20  1  0.66950000  0.37405000  0.90530000  1
  C  C21  1  0.81040000  0.24137000  0.21930000  1
  C  C22  1  0.66000000  0.26384000  0.23230000  1
  C  C23  1  0.99990000  0.48864000  0.92110000  1
  C  C24  1  0.48490000  0.48774000  0.06950000  1
  O  O1  1  0.89567000  0.15350000  0.61059000  1
  O  O2  1  0.84818000  0.08995000  0.62829000  1
  O  O3  1  0.62075000  0.16010000  0.35884000  1
  O  O4  1  0.61147000  0.09516000  0.33753000  1
  O  O5  1  0.62359000  0.20581000  0.64185000  1
  O  O6  1  0.58664000  0.24810000  0.82434000  1
  O  O7  1  0.87410000  0.24625000  0.61530000  1
  O  O8  1  0.85791000  0.28752000  0.80976000  1
  O  O9  1  0.90589000  0.04080000  0.38507000  1
  O  O10  1  0.08851000  0.00016000  0.34265000  1
  O  O11  1  0.56971000  0.04222000  0.61269000  1
  O  O12  1  0.37848000  0.00003000  0.62778000  1
  O  O13  1  0.10433000  0.65350000  0.88941000  1
  O  O14  1  0.15182000  0.58995000  0.87171000  1
  O  O15  1  0.37925000  0.66010000  0.14116000  1
  O  O16  1  0.38853000  0.59516000  0.16247000  1
  O  O17  1  0.37641000  0.70581000  0.85815000  1
  O  O18  1  0.41336000  0.74810000  0.67566000  1
  O  O19  1  0.12590000  0.74625000  0.88470000  1
  O  O20  1  0.14209000  0.78752000  0.69024000  1
  O  O21  1  0.09411000  0.54080000  0.11493000  1
  O  O22  1  0.91149000  0.50016000  0.15735000  1
  O  O23  1  0.43029000  0.54222000  0.88731000  1
  O  O24  1  0.62152000  0.50003000  0.87222000  1
  O  O25  1  0.10433000  0.84650000  0.38941000  1
  O  O26  1  0.15182000  0.91005000  0.37171000  1
  O  O27  1  0.37925000  0.83990000  0.64116000  1
  O  O28  1  0.38853000  0.90484000  0.66247000  1
  O  O29  1  0.37641000  0.79419000  0.35815000  1
  O  O30  1  0.41336000  0.75190000  0.17566000  1
  O  O31  1  0.12590000  0.75375000  0.38470000  1
  O  O32  1  0.14209000  0.71248000  0.19024000  1
  O  O33  1  0.09411000  0.95920000  0.61493000  1
  O  O34  1  0.91149000  0.99984000  0.65735000  1
  O  O35  1  0.43029000  0.95778000  0.38731000  1
  O  O36  1  0.62152000  0.99997000  0.37222000  1
  O  O37  1  0.89567000  0.34650000  0.11059000  1
  O  O38  1  0.84818000  0.41005000  0.12829000  1
  O  O39  1  0.62075000  0.33990000  0.85884000  1
  O  O40  1  0.61147000  0.40484000  0.83753000  1
  O  O41  1  0.62359000  0.29419000  0.14185000  1
  O  O42  1  0.58664000  0.25190000  0.32434000  1
  O  O43  1  0.87410000  0.25375000  0.11530000  1
  O  O44  1  0.85791000  0.21248000  0.30976000  1
  O  O45  1  0.90589000  0.45920000  0.88507000  1
  O  O46  1  0.08851000  0.49984000  0.84265000  1
  O  O47  1  0.56971000  0.45778000  0.11269000  1
  O  O48  1  0.37848000  0.49997000  0.12778000  1
