# generated using pymatgen
data_ZnH15C23N4O5
_symmetry_space_group_name_H-M   'P 1'
_cell_length_a   22.80700000
_cell_length_b   25.24300000
_cell_length_c   16.20400000
_cell_angle_alpha   90.00000000
_cell_angle_beta   133.80900000
_cell_angle_gamma   90.00000000
_symmetry_Int_Tables_number   1
_chemical_formula_structural   ZnH15C23N4O5
_chemical_formula_sum   'Zn8 H120 C184 N32 O40'
_cell_volume   6732.22902014
_cell_formula_units_Z   8
loop_
 _symmetry_equiv_pos_site_id
 _symmetry_equiv_pos_as_xyz
  1  'x, y, z'
loop_
 _atom_site_type_symbol
 _atom_site_label
 _atom_site_symmetry_multiplicity
 _atom_site_fract_x
 _atom_site_fract_y
 _atom_site_fract_z
 _atom_site_occupancy
  Zn  Zn1  1  0.06011000  0.01967000  0.73900000  1
  Zn  Zn2  1  0.56011000  0.51967000  0.73900000  1
  Zn  Zn3  1  0.93989000  0.01967000  0.76100000  1
  Zn  Zn4  1  0.43989000  0.51967000  0.76100000  1
  Zn  Zn5  1  0.93989000  0.98033000  0.26100000  1
  Zn  Zn6  1  0.43989000  0.48033000  0.26100000  1
  Zn  Zn7  1  0.06011000  0.98033000  0.23900000  1
  Zn  Zn8  1  0.56011000  0.48033000  0.23900000  1
  H  H1  1  0.19980000  0.96350000  0.61700000  1
  H  H2  1  0.94370000  0.14920000  0.48480000  1
  H  H3  1  0.94370000  0.85080000  0.98480000  1
  H  H4  1  0.72340000  0.78120000  0.90400000  1
  H  H5  1  0.50270000  0.00420000  0.39450000  1
  H  H6  1  0.87680000  0.77920000  0.86580000  1
  H  H7  1  0.37760000  0.00610000  0.06320000  1
  H  H8  1  0.38300000  0.96980000  0.31200000  1
  H  H9  1  0.69980000  0.53650000  0.11700000  1
  H  H10  1  0.59760000  0.53030000  0.11210000  1
  H  H11  1  0.72680000  0.43820000  0.37890000  1
  H  H12  1  0.44610000  0.60040000  0.97020000  1
  H  H13  1  0.72340000  0.21880000  0.40400000  1
  H  H14  1  0.28090000  0.59600000  0.99110000  1
  H  H15  1  0.37060000  0.66500000  0.82920000  1
  H  H16  1  0.83190000  0.43870000  0.38850000  1
  H  H17  1  0.29090000  0.35270000  0.02480000  1
  H  H18  1  0.20590000  0.66010000  0.85170000  1
  H  H19  1  0.44370000  0.35080000  0.98480000  1
  H  H20  1  0.22340000  0.28120000  0.90400000  1
  H  H21  1  0.00270000  0.50420000  0.39450000  1
  H  H22  1  0.37680000  0.27920000  0.86580000  1
  H  H23  1  0.87760000  0.50610000  0.06320000  1
  H  H24  1  0.50270000  0.99580000  0.89450000  1
  H  H25  1  0.88300000  0.46980000  0.31200000  1
  H  H26  1  0.87680000  0.22080000  0.36580000  1
  H  H27  1  0.37760000  0.99390000  0.56320000  1
  H  H28  1  0.38300000  0.03020000  0.81200000  1
  H  H29  1  0.69980000  0.46350000  0.61700000  1
  H  H30  1  0.59760000  0.46970000  0.61210000  1
  H  H31  1  0.72680000  0.56180000  0.87890000  1
  H  H32  1  0.44610000  0.39960000  0.47020000  1
  H  H33  1  0.09760000  0.96970000  0.61210000  1
  H  H34  1  0.28090000  0.40400000  0.49110000  1
  H  H35  1  0.37060000  0.33500000  0.32920000  1
  H  H36  1  0.83190000  0.56130000  0.88850000  1
  H  H37  1  0.29090000  0.64730000  0.52480000  1
  H  H38  1  0.20590000  0.33990000  0.35170000  1
  H  H39  1  0.44370000  0.64920000  0.48480000  1
  H  H40  1  0.22340000  0.71880000  0.40400000  1
  H  H41  1  0.00270000  0.49580000  0.89450000  1
  H  H42  1  0.37680000  0.72080000  0.36580000  1
  H  H43  1  0.87760000  0.49390000  0.56320000  1
  H  H44  1  0.22680000  0.06180000  0.87890000  1
  H  H45  1  0.88300000  0.53020000  0.81200000  1
  H  H46  1  0.80020000  0.96350000  0.88300000  1
  H  H47  1  0.90240000  0.96970000  0.88790000  1
  H  H48  1  0.77320000  0.06180000  0.62110000  1
  H  H49  1  0.05390000  0.89960000  0.02980000  1
  H  H50  1  0.21910000  0.90400000  0.00890000  1
  H  H51  1  0.12940000  0.83500000  0.17080000  1
  H  H52  1  0.66810000  0.06130000  0.61150000  1
  H  H53  1  0.20910000  0.14730000  0.97520000  1
  H  H54  1  0.29410000  0.83990000  0.14830000  1
  H  H55  1  0.94610000  0.89960000  0.47020000  1
  H  H56  1  0.05630000  0.14920000  0.01520000  1
  H  H57  1  0.27660000  0.21880000  0.09600000  1
  H  H58  1  0.49730000  0.99580000  0.60550000  1
  H  H59  1  0.12320000  0.22080000  0.13420000  1
  H  H60  1  0.62240000  0.99390000  0.93680000  1
  H  H61  1  0.61700000  0.03020000  0.68800000  1
  H  H62  1  0.30020000  0.46350000  0.88300000  1
  H  H63  1  0.40240000  0.46970000  0.88790000  1
  H  H64  1  0.27320000  0.56180000  0.62110000  1
  H  H65  1  0.55390000  0.39960000  0.02980000  1
  H  H66  1  0.78090000  0.90400000  0.49110000  1
  H  H67  1  0.71910000  0.40400000  0.00890000  1
  H  H68  1  0.62940000  0.33500000  0.17080000  1
  H  H69  1  0.16810000  0.56130000  0.61150000  1
  H  H70  1  0.70910000  0.64730000  0.97520000  1
  H  H71  1  0.79410000  0.33990000  0.14830000  1
  H  H72  1  0.55630000  0.64920000  0.01520000  1
  H  H73  1  0.77660000  0.71880000  0.09600000  1
  H  H74  1  0.99730000  0.49580000  0.60550000  1
  H  H75  1  0.62320000  0.72080000  0.13420000  1
  H  H76  1  0.12240000  0.49390000  0.93680000  1
  H  H77  1  0.87060000  0.83500000  0.32920000  1
  H  H78  1  0.11700000  0.53020000  0.68800000  1
  H  H79  1  0.80020000  0.03650000  0.38300000  1
  H  H80  1  0.90240000  0.03030000  0.38790000  1
  H  H81  1  0.77320000  0.93820000  0.12110000  1
  H  H82  1  0.05390000  0.10040000  0.52980000  1
  H  H83  1  0.21910000  0.09600000  0.50890000  1
  H  H84  1  0.12940000  0.16500000  0.67080000  1
  H  H85  1  0.66810000  0.93870000  0.11150000  1
  H  H86  1  0.20910000  0.85270000  0.47520000  1
  H  H87  1  0.29410000  0.16010000  0.64830000  1
  H  H88  1  0.33190000  0.06130000  0.88850000  1
  H  H89  1  0.05630000  0.85080000  0.51520000  1
  H  H90  1  0.27660000  0.78120000  0.59600000  1
  H  H91  1  0.49730000  0.00420000  0.10550000  1
  H  H92  1  0.12320000  0.77920000  0.63420000  1
  H  H93  1  0.62240000  0.00610000  0.43680000  1
  H  H94  1  0.61700000  0.96980000  0.18800000  1
  H  H95  1  0.30020000  0.53650000  0.38300000  1
  H  H96  1  0.40240000  0.53030000  0.38790000  1
  H  H97  1  0.27320000  0.43820000  0.12110000  1
  H  H98  1  0.55390000  0.60040000  0.52980000  1
  H  H99  1  0.79090000  0.14730000  0.52480000  1
  H  H100  1  0.71910000  0.59600000  0.50890000  1
  H  H101  1  0.62940000  0.66500000  0.67080000  1
  H  H102  1  0.16810000  0.43870000  0.11150000  1
  H  H103  1  0.70910000  0.35270000  0.47520000  1
  H  H104  1  0.79410000  0.66010000  0.64830000  1
  H  H105  1  0.55630000  0.35080000  0.51520000  1
  H  H106  1  0.77660000  0.28120000  0.59600000  1
  H  H107  1  0.99730000  0.50420000  0.10550000  1
  H  H108  1  0.62320000  0.27920000  0.63420000  1
  H  H109  1  0.12240000  0.50610000  0.43680000  1
  H  H110  1  0.70590000  0.83990000  0.35170000  1
  H  H111  1  0.11700000  0.46980000  0.18800000  1
  H  H112  1  0.19980000  0.03650000  0.11700000  1
  H  H113  1  0.09760000  0.03030000  0.11210000  1
  H  H114  1  0.22680000  0.93820000  0.37890000  1
  H  H115  1  0.94610000  0.10040000  0.97020000  1
  H  H116  1  0.78090000  0.09600000  0.99110000  1
  H  H117  1  0.87060000  0.16500000  0.82920000  1
  H  H118  1  0.33190000  0.93870000  0.38850000  1
  H  H119  1  0.79090000  0.85270000  0.02480000  1
  H  H120  1  0.70590000  0.16010000  0.85170000  1
  C  C1  1  0.27803000  0.01213000  0.75320000  1
  C  C2  1  0.79960000  0.88983000  0.46000000  1
  C  C3  1  0.77865000  0.95770000  0.17480000  1
  C  C4  1  0.10175000  0.11288000  0.55270000  1
  C  C5  1  0.20040000  0.11017000  0.54000000  1
  C  C6  1  0.14680000  0.15147000  0.63750000  1
  C  C7  1  0.71501000  0.95805000  0.16790000  1
  C  C8  1  0.20760000  0.77317000  0.62780000  1
  C  C9  1  0.19080000  0.83793000  0.50650000  1
  C  C10  1  0.21810000  0.16930000  0.67120000  1
  C  C11  1  0.65250000  0.01149000  0.30970000  1
  C  C12  1  0.24540000  0.14834000  0.62370000  1
  C  C13  1  0.85320000  0.84853000  0.36250000  1
  C  C14  1  0.10050000  0.83666000  0.53010000  1
  C  C15  1  0.23180000  0.79505000  0.57980000  1
  C  C16  1  0.57200000  0.00579000  0.27530000  1
  C  C17  1  0.49900000  0.00510000  0.16450000  1
  C  C18  1  0.14100000  0.79407000  0.60220000  1
  C  C19  1  0.57290000  0.00570000  0.36080000  1
  C  C20  1  0.22197000  0.48787000  0.24680000  1
  C  C21  1  0.57713000  0.55115000  0.40870000  1
  C  C22  1  0.57957000  0.40538000  0.40000000  1
  C  C23  1  0.29352000  0.51580000  0.32960000  1
  C  C24  1  0.28499000  0.04195000  0.83210000  1
  C  C25  1  0.35416000  0.51220000  0.33100000  1
  C  C26  1  0.62710000  0.59256000  0.50150000  1
  C  C27  1  0.62427000  0.35884000  0.47950000  1
  C  C28  1  0.27865000  0.45770000  0.17480000  1
  C  C29  1  0.60175000  0.61288000  0.55270000  1
  C  C30  1  0.70040000  0.61017000  0.54000000  1
  C  C31  1  0.64680000  0.65147000  0.63750000  1
  C  C32  1  0.21501000  0.45805000  0.16790000  1
  C  C33  1  0.70760000  0.27317000  0.62780000  1
  C  C34  1  0.69080000  0.33793000  0.50650000  1
  C  C35  1  0.79240000  0.22683000  0.37220000  1
  C  C36  1  0.71810000  0.66930000  0.67120000  1
  C  C37  1  0.15250000  0.51149000  0.30970000  1
  C  C38  1  0.74540000  0.64834000  0.62370000  1
  C  C39  1  0.60050000  0.33666000  0.53010000  1
  C  C40  1  0.73180000  0.29505000  0.57980000  1
  C  C41  1  0.07200000  0.50579000  0.27530000  1
  C  C42  1  0.99900000  0.50510000  0.16450000  1
  C  C43  1  0.64100000  0.29407000  0.60220000  1
  C  C44  1  0.07290000  0.50570000  0.36080000  1
  C  C45  1  0.27803000  0.98787000  0.25320000  1
  C  C46  1  0.80920000  0.16207000  0.49350000  1
  C  C47  1  0.92287000  0.05115000  0.09130000  1
  C  C48  1  0.92043000  0.90538000  0.10000000  1
  C  C49  1  0.20648000  0.01580000  0.17040000  1
  C  C50  1  0.14584000  0.01220000  0.16900000  1
  C  C51  1  0.87290000  0.09256000  0.99850000  1
  C  C52  1  0.87573000  0.85884000  0.02050000  1
  C  C53  1  0.22135000  0.95770000  0.32520000  1
  C  C54  1  0.89825000  0.11288000  0.94730000  1
  C  C55  1  0.79960000  0.11017000  0.96000000  1
  C  C56  1  0.85320000  0.15147000  0.86250000  1
  C  C57  1  0.78190000  0.83070000  0.32880000  1
  C  C58  1  0.28499000  0.95805000  0.33210000  1
  C  C59  1  0.79240000  0.77317000  0.87220000  1
  C  C60  1  0.80920000  0.83793000  0.99350000  1
  C  C61  1  0.78190000  0.16930000  0.82880000  1
  C  C62  1  0.34750000  0.01149000  0.19030000  1
  C  C63  1  0.75460000  0.14834000  0.87630000  1
  C  C64  1  0.89950000  0.83666000  0.96990000  1
  C  C65  1  0.76820000  0.79505000  0.92020000  1
  C  C66  1  0.42800000  0.00579000  0.22470000  1
  C  C67  1  0.50100000  0.00510000  0.33550000  1
  C  C68  1  0.34750000  0.98851000  0.69030000  1
  C  C69  1  0.85900000  0.79407000  0.89780000  1
  C  C70  1  0.42710000  0.00570000  0.13920000  1
  C  C71  1  0.77803000  0.48787000  0.25320000  1
  C  C72  1  0.42287000  0.55115000  0.09130000  1
  C  C73  1  0.42043000  0.40538000  0.10000000  1
  C  C74  1  0.70648000  0.51580000  0.17040000  1
  C  C75  1  0.64584000  0.51220000  0.16900000  1
  C  C76  1  0.37290000  0.59256000  0.99850000  1
  C  C77  1  0.37573000  0.35884000  0.02050000  1
  C  C78  1  0.72135000  0.45770000  0.32520000  1
  C  C79  1  0.75460000  0.85166000  0.37630000  1
  C  C80  1  0.39825000  0.61288000  0.94730000  1
  C  C81  1  0.29960000  0.61017000  0.96000000  1
  C  C82  1  0.35320000  0.65147000  0.86250000  1
  C  C83  1  0.78499000  0.45805000  0.33210000  1
  C  C84  1  0.29240000  0.27317000  0.87220000  1
  C  C85  1  0.30920000  0.33793000  0.99350000  1
  C  C86  1  0.28190000  0.66930000  0.82880000  1
  C  C87  1  0.84750000  0.51149000  0.19030000  1
  C  C88  1  0.25460000  0.64834000  0.87630000  1
  C  C89  1  0.39950000  0.33666000  0.96990000  1
  C  C90  1  0.89950000  0.16334000  0.46990000  1
  C  C91  1  0.26820000  0.29505000  0.92020000  1
  C  C92  1  0.92800000  0.50579000  0.22470000  1
  C  C93  1  0.00100000  0.50510000  0.33550000  1
  C  C94  1  0.35900000  0.29407000  0.89780000  1
  C  C95  1  0.92710000  0.50570000  0.13920000  1
  C  C96  1  0.76820000  0.20495000  0.42020000  1
  C  C97  1  0.92287000  0.94885000  0.59130000  1
  C  C98  1  0.42800000  0.99421000  0.72470000  1
  C  C99  1  0.50100000  0.99490000  0.83550000  1
  C  C100  1  0.85900000  0.20593000  0.39780000  1
  C  C101  1  0.42710000  0.99430000  0.63920000  1
  C  C102  1  0.77803000  0.51213000  0.75320000  1
  C  C103  1  0.42287000  0.44885000  0.59130000  1
  C  C104  1  0.42043000  0.59462000  0.60000000  1
  C  C105  1  0.70648000  0.48420000  0.67040000  1
  C  C106  1  0.64584000  0.48780000  0.66900000  1
  C  C107  1  0.37290000  0.40744000  0.49850000  1
  C  C108  1  0.92043000  0.09462000  0.60000000  1
  C  C109  1  0.37573000  0.64116000  0.52050000  1
  C  C110  1  0.72135000  0.54230000  0.82520000  1
  C  C111  1  0.39825000  0.38712000  0.44730000  1
  C  C112  1  0.29960000  0.38983000  0.46000000  1
  C  C113  1  0.35320000  0.34853000  0.36250000  1
  C  C114  1  0.78499000  0.54195000  0.83210000  1
  C  C115  1  0.29240000  0.72683000  0.37220000  1
  C  C116  1  0.30920000  0.66207000  0.49350000  1
  C  C117  1  0.28190000  0.33070000  0.32880000  1
  C  C118  1  0.84750000  0.48851000  0.69030000  1
  C  C119  1  0.20648000  0.98420000  0.67040000  1
  C  C120  1  0.25460000  0.35166000  0.37630000  1
  C  C121  1  0.39950000  0.66334000  0.46990000  1
  C  C122  1  0.26820000  0.70495000  0.42020000  1
  C  C123  1  0.92800000  0.49421000  0.72470000  1
  C  C124  1  0.00100000  0.49490000  0.83550000  1
  C  C125  1  0.35900000  0.70593000  0.39780000  1
  C  C126  1  0.92710000  0.49430000  0.63920000  1
  C  C127  1  0.72197000  0.01213000  0.74680000  1
  C  C128  1  0.07713000  0.94885000  0.90870000  1
  C  C129  1  0.07957000  0.09462000  0.90000000  1
  C  C130  1  0.14584000  0.98780000  0.66900000  1
  C  C131  1  0.79352000  0.98420000  0.82960000  1
  C  C132  1  0.85416000  0.98780000  0.83100000  1
  C  C133  1  0.12710000  0.90744000  0.00150000  1
  C  C134  1  0.12427000  0.14116000  0.97950000  1
  C  C135  1  0.77865000  0.04230000  0.67480000  1
  C  C136  1  0.10175000  0.88712000  0.05270000  1
  C  C137  1  0.20040000  0.88983000  0.04000000  1
  C  C138  1  0.14680000  0.84853000  0.13750000  1
  C  C139  1  0.71501000  0.04195000  0.66790000  1
  C  C140  1  0.20760000  0.22683000  0.12780000  1
  C  C141  1  0.87290000  0.90744000  0.49850000  1
  C  C142  1  0.19080000  0.16207000  0.00650000  1
  C  C143  1  0.21810000  0.83070000  0.17120000  1
  C  C144  1  0.65250000  0.98851000  0.80970000  1
  C  C145  1  0.24540000  0.85166000  0.12370000  1
  C  C146  1  0.10050000  0.16334000  0.03010000  1
  C  C147  1  0.23180000  0.20495000  0.07980000  1
  C  C148  1  0.57200000  0.99421000  0.77530000  1
  C  C149  1  0.49900000  0.99490000  0.66450000  1
  C  C150  1  0.14100000  0.20593000  0.10220000  1
  C  C151  1  0.57290000  0.99430000  0.86080000  1
  C  C152  1  0.87573000  0.14116000  0.52050000  1
  C  C153  1  0.22197000  0.51213000  0.74680000  1
  C  C154  1  0.57713000  0.44885000  0.90870000  1
  C  C155  1  0.57957000  0.59462000  0.90000000  1
  C  C156  1  0.29352000  0.48420000  0.82960000  1
  C  C157  1  0.35416000  0.48780000  0.83100000  1
  C  C158  1  0.62710000  0.40744000  0.00150000  1
  C  C159  1  0.62427000  0.64116000  0.97950000  1
  C  C160  1  0.27865000  0.54230000  0.67480000  1
  C  C161  1  0.60175000  0.38712000  0.05270000  1
  C  C162  1  0.70040000  0.38983000  0.04000000  1
  C  C163  1  0.22135000  0.04230000  0.82520000  1
  C  C164  1  0.64680000  0.34853000  0.13750000  1
  C  C165  1  0.21501000  0.54195000  0.66790000  1
  C  C166  1  0.70760000  0.72683000  0.12780000  1
  C  C167  1  0.69080000  0.66207000  0.00650000  1
  C  C168  1  0.71810000  0.33070000  0.17120000  1
  C  C169  1  0.15250000  0.48851000  0.80970000  1
  C  C170  1  0.74540000  0.35166000  0.12370000  1
  C  C171  1  0.60050000  0.66334000  0.03010000  1
  C  C172  1  0.73180000  0.70495000  0.07980000  1
  C  C173  1  0.07200000  0.49421000  0.77530000  1
  C  C174  1  0.89825000  0.88712000  0.44730000  1
  C  C175  1  0.99900000  0.49490000  0.66450000  1
  C  C176  1  0.64100000  0.70593000  0.10220000  1
  C  C177  1  0.07290000  0.49430000  0.86080000  1
  C  C178  1  0.72197000  0.98787000  0.24680000  1
  C  C179  1  0.07713000  0.05115000  0.40870000  1
  C  C180  1  0.07957000  0.90538000  0.40000000  1
  C  C181  1  0.79352000  0.01580000  0.32960000  1
  C  C182  1  0.85416000  0.01220000  0.33100000  1
  C  C183  1  0.12710000  0.09256000  0.50150000  1
  C  C184  1  0.12427000  0.85884000  0.47950000  1
  N  N1  1  0.74264000  0.27014000  0.29300000  1
  N  N2  1  0.26978000  0.78936000  0.25580000  1
  N  N3  1  0.84814000  0.01582000  0.75542000  1
  N  N4  1  0.65629000  0.01252000  0.73790000  1
  N  N5  1  0.75736000  0.77014000  0.20700000  1
  N  N6  1  0.76978000  0.28936000  0.25580000  1
  N  N7  1  0.34814000  0.51582000  0.75542000  1
  N  N8  1  0.15629000  0.51252000  0.73790000  1
  N  N9  1  0.25736000  0.72986000  0.70700000  1
  N  N10  1  0.26978000  0.21064000  0.75580000  1
  N  N11  1  0.84814000  0.98418000  0.25542000  1
  N  N12  1  0.73022000  0.78936000  0.24420000  1
  N  N13  1  0.65629000  0.98748000  0.23790000  1
  N  N14  1  0.75736000  0.22986000  0.70700000  1
  N  N15  1  0.76978000  0.71064000  0.75580000  1
  N  N16  1  0.34814000  0.48418000  0.25542000  1
  N  N17  1  0.15629000  0.48748000  0.23790000  1
  N  N18  1  0.74264000  0.72986000  0.79300000  1
  N  N19  1  0.73022000  0.21064000  0.74420000  1
  N  N20  1  0.15186000  0.98418000  0.24458000  1
  N  N21  1  0.34371000  0.98748000  0.26210000  1
  N  N22  1  0.24264000  0.22986000  0.79300000  1
  N  N23  1  0.15186000  0.01582000  0.74458000  1
  N  N24  1  0.23022000  0.71064000  0.74420000  1
  N  N25  1  0.65186000  0.48418000  0.24458000  1
  N  N26  1  0.84371000  0.48748000  0.26210000  1
  N  N27  1  0.34371000  0.01252000  0.76210000  1
  N  N28  1  0.24264000  0.77014000  0.29300000  1
  N  N29  1  0.23022000  0.28936000  0.24420000  1
  N  N30  1  0.65186000  0.51582000  0.74458000  1
  N  N31  1  0.84371000  0.51252000  0.76210000  1
  N  N32  1  0.25736000  0.27014000  0.20700000  1
  O  O1  1  0.89721000  0.96532000  0.63410000  1
  O  O2  1  0.79202000  0.46453000  0.60480000  1
  O  O3  1  0.10279000  0.96532000  0.86590000  1
  O  O4  1  0.01243000  0.96303000  0.88026000  1
  O  O5  1  0.10286000  0.07937000  0.85278000  1
  O  O6  1  0.02281000  0.07503000  0.88566000  1
  O  O7  1  0.70798000  0.96453000  0.89520000  1
  O  O8  1  0.60279000  0.46532000  0.86590000  1
  O  O9  1  0.51243000  0.46303000  0.88026000  1
  O  O10  1  0.60286000  0.57937000  0.85278000  1
  O  O11  1  0.52281000  0.57503000  0.88566000  1
  O  O12  1  0.98757000  0.96303000  0.61974000  1
  O  O13  1  0.20798000  0.46453000  0.89520000  1
  O  O14  1  0.10279000  0.03468000  0.36590000  1
  O  O15  1  0.01243000  0.03697000  0.38026000  1
  O  O16  1  0.10286000  0.92063000  0.35278000  1
  O  O17  1  0.02281000  0.92497000  0.38566000  1
  O  O18  1  0.70798000  0.03547000  0.39520000  1
  O  O19  1  0.60279000  0.53468000  0.36590000  1
  O  O20  1  0.51243000  0.53697000  0.38026000  1
  O  O21  1  0.60286000  0.42063000  0.35278000  1
  O  O22  1  0.52281000  0.42497000  0.38566000  1
  O  O23  1  0.89714000  0.07937000  0.64722000  1
  O  O24  1  0.20798000  0.53547000  0.39520000  1
  O  O25  1  0.89721000  0.03468000  0.13410000  1
  O  O26  1  0.98757000  0.03697000  0.11974000  1
  O  O27  1  0.89714000  0.92063000  0.14722000  1
  O  O28  1  0.97719000  0.92497000  0.11434000  1
  O  O29  1  0.29202000  0.03547000  0.10480000  1
  O  O30  1  0.39721000  0.53468000  0.13410000  1
  O  O31  1  0.48757000  0.53697000  0.11974000  1
  O  O32  1  0.39714000  0.42063000  0.14722000  1
  O  O33  1  0.47719000  0.42497000  0.11434000  1
  O  O34  1  0.97719000  0.07503000  0.61434000  1
  O  O35  1  0.79202000  0.53547000  0.10480000  1
  O  O36  1  0.29202000  0.96453000  0.60480000  1
  O  O37  1  0.39721000  0.46532000  0.63410000  1
  O  O38  1  0.48757000  0.46303000  0.61974000  1
  O  O39  1  0.39714000  0.57937000  0.64722000  1
  O  O40  1  0.47719000  0.57503000  0.61434000  1
