# Generated by REPEAT Assigner based on pymatgen
data_DB12-HUTTIA_freeONLY
_audit_creation_date              2022-05-24
_audit_creation_method            REPEAT_Assigner
_cell_length_a                    15.833000
_cell_length_b                    16.086000
_cell_length_c                    22.670000
_cell_angle_alpha                 90.000000
_cell_angle_beta                  90.000000
_cell_angle_gamma                 90.000000
_cell_volume                      5773.814093
_symmetry_space_group_name_H-M    P1
_symmetry_Int_Tables_number       1
loop_
    _symmetry_equiv_pos_site_id
    _symmetry_equiv_pos_as_xyz
    1  x,y,z
loop_
    _atom_site_type_symbol
    _atom_site_label
    _atom_site_fract_x
    _atom_site_fract_y
    _atom_site_fract_z
    _atom_type_partial_charge
    Zn  Zn1   0.687670  0.561070  0.259230  1.025142
    Zn  Zn2   0.834560  0.444720  0.252280  1.011205
    Zn  Zn3   0.187670  0.438930  0.740770  1.025132
    Zn  Zn4   0.334560  0.555280  0.747720  1.011213
    Zn  Zn5   0.687670  0.438930  0.759230  1.025134
    Zn  Zn6   0.834560  0.555280  0.752280  1.011218
    Zn  Zn7   0.187670  0.561070  0.240770  1.025141
    Zn  Zn8   0.334560  0.444720  0.247720  1.011204
    H   H1    0.778200  0.718600  0.117700  0.104115
    H   H2    0.840800  0.801700  0.045700  0.157441
    H   H3    0.039000  0.642300  0.039000  0.133280
    H   H4    0.977900  0.563000  0.112100  0.124690
    H   H5    0.939300  0.657600  0.928200  0.137078
    H   H6    0.004300  0.570600  0.859000  0.081290
    H   H7    0.220200  0.704200  0.874400  0.122857
    H   H8    0.155300  0.788800  0.944600  0.140171
    H   H9    0.755300  0.284200  0.389400  0.120053
    H   H10   0.699700  0.194200  0.461100  0.157255
    H   H11   0.481900  0.329400  0.459600  0.144060
    H   H12   0.540100  0.419300  0.390400  0.124237
    H   H13   0.589800  0.325100  0.575400  0.142758
    H   H14   0.519200  0.412500  0.640100  0.104520
    H   H15   0.308000  0.276200  0.620400  0.128294
    H   H16   0.377700  0.187000  0.556400  0.134086
    H   H17   0.723000  0.733500  0.273400  0.115641
    H   H18   0.659500  0.862500  0.286400  0.036618
    H   H19   0.432800  0.749400  0.271900  0.090384
    H   H20   0.503400  0.621500  0.264900  0.055441
    H   H21   0.436700  0.905000  0.280900  -0.045832
    H   H22   0.589500  0.106100  0.274600  -0.024008
    H   H23   0.588900  0.261400  0.276600  0.081862
    H   H24   0.518500  0.386000  0.269000  0.073447
    H   H25   0.301600  0.267000  0.249400  0.115611
    H   H26   0.367100  0.140800  0.258800  0.022519
    H   H27   0.278200  0.281400  0.882300  0.104101
    H   H28   0.340800  0.198300  0.954300  0.157440
    H   H29   0.539000  0.357700  0.961000  0.133280
    H   H30   0.477900  0.437000  0.887900  0.124675
    H   H31   0.439300  0.342400  0.071800  0.137075
    H   H32   0.504300  0.429400  0.141000  0.081293
    H   H33   0.720200  0.295800  0.125600  0.122858
    H   H34   0.655300  0.211200  0.055400  0.140169
    H   H35   0.255300  0.715800  0.610600  0.120072
    H   H36   0.199700  0.805800  0.538900  0.157263
    H   H37   0.981900  0.670600  0.540400  0.144062
    H   H38   0.040100  0.580700  0.609600  0.124252
    H   H39   0.089800  0.674900  0.424600  0.142761
    H   H40   0.019200  0.587500  0.359900  0.104520
    H   H41   0.808000  0.723800  0.379600  0.128300
    H   H42   0.877700  0.813000  0.443600  0.134083
    H   H43   0.223000  0.266500  0.726600  0.115640
    H   H44   0.159500  0.137500  0.713600  0.036632
    H   H45   0.932800  0.250600  0.728100  0.090407
    H   H46   0.003400  0.378500  0.735100  0.055444
    H   H47   0.936700  0.095000  0.719100  -0.045846
    H   H48   0.089500  0.893900  0.725400  -0.023994
    H   H49   0.088900  0.738600  0.723400  0.081862
    H   H50   0.018500  0.614000  0.731000  0.073452
    H   H51   0.801600  0.733000  0.750600  0.115605
    H   H52   0.867100  0.859200  0.741200  0.022525
    H   H53   0.778200  0.281400  0.617700  0.104109
    H   H54   0.840800  0.198300  0.545700  0.157461
    H   H55   0.039000  0.357700  0.539000  0.133271
    H   H56   0.977900  0.437000  0.612100  0.124682
    H   H57   0.939300  0.342400  0.428200  0.137099
    H   H58   0.004300  0.429400  0.359000  0.081284
    H   H59   0.220200  0.295800  0.374400  0.122855
    H   H60   0.155300  0.211200  0.444600  0.140171
    H   H61   0.755300  0.715800  0.889400  0.120058
    H   H62   0.699700  0.805800  0.961100  0.157262
    H   H63   0.481900  0.670600  0.959600  0.144058
    H   H64   0.540100  0.580700  0.890400  0.124237
    H   H65   0.589800  0.674900  0.075400  0.142756
    H   H66   0.519200  0.587500  0.140100  0.104518
    H   H67   0.308000  0.723800  0.120400  0.128296
    H   H68   0.377700  0.813000  0.056400  0.134085
    H   H69   0.723000  0.266500  0.773400  0.115639
    H   H70   0.659500  0.137500  0.786400  0.036627
    H   H71   0.432800  0.250600  0.771900  0.090382
    H   H72   0.503400  0.378500  0.764900  0.055436
    H   H73   0.436700  0.095000  0.780900  -0.045831
    H   H74   0.589500  0.893900  0.774600  -0.024008
    H   H75   0.588900  0.738600  0.776600  0.081864
    H   H76   0.518500  0.614000  0.769000  0.073450
    H   H77   0.301600  0.733000  0.749400  0.115612
    H   H78   0.367100  0.859200  0.758800  0.022517
    H   H79   0.278200  0.718600  0.382300  0.104111
    H   H80   0.340800  0.801700  0.454300  0.157437
    H   H81   0.539000  0.642300  0.461000  0.133282
    H   H82   0.477900  0.563000  0.387900  0.124682
    H   H83   0.439300  0.657600  0.571800  0.137078
    H   H84   0.504300  0.570600  0.641000  0.081299
    H   H85   0.720200  0.704200  0.625600  0.122860
    H   H86   0.655300  0.788800  0.555400  0.140169
    H   H87   0.255300  0.284200  0.110600  0.120064
    H   H88   0.199700  0.194200  0.038900  0.157267
    H   H89   0.981900  0.329400  0.040400  0.144057
    H   H90   0.040100  0.419300  0.109600  0.124243
    H   H91   0.089800  0.325100  0.924600  0.142765
    H   H92   0.019200  0.412500  0.859900  0.104504
    H   H93   0.808000  0.276200  0.879600  0.128294
    H   H94   0.877700  0.187000  0.943600  0.134083
    H   H95   0.223000  0.733500  0.226600  0.115638
    H   H96   0.159500  0.862500  0.213600  0.036617
    H   H97   0.932800  0.749400  0.228100  0.090381
    H   H98   0.003400  0.621500  0.235100  0.055442
    H   H99   0.936700  0.905000  0.219100  -0.045833
    H   H100  0.089500  0.106100  0.225400  -0.024008
    H   H101  0.088900  0.261400  0.223400  0.081861
    H   H102  0.018500  0.386000  0.231000  0.073448
    H   H103  0.801600  0.267000  0.250600  0.115611
    H   H104  0.867100  0.140800  0.241200  0.022516
    C   C1    0.833800  0.579700  0.169700  0.785538
    C   C2    0.870700  0.632300  0.123000  -0.137547
    C   C3    0.831700  0.703200  0.102100  -0.026903
    C   C4    0.868700  0.752800  0.058900  -0.254147
    C   C5    0.946300  0.730800  0.035200  0.275354
    C   C6    0.986300  0.658600  0.055300  -0.191221
    C   C7    0.949500  0.611300  0.098400  -0.093140
    C   C8    0.994300  0.786400  0.990100  -0.515221
    C   C9    0.055200  0.841100  0.026100  0.715877
    C   C10   0.935900  0.844800  0.954800  0.718165
    C   C11   0.040400  0.732100  0.944400  0.279832
    C   C12   0.996700  0.667000  0.917800  -0.231025
    C   C13   0.034900  0.615300  0.876200  0.013482
    C   C14   0.117900  0.629700  0.860300  -0.188110
    C   C15   0.163200  0.694400  0.885500  -0.066803
    C   C16   0.124200  0.744700  0.927200  -0.240732
    C   C17   0.162000  0.573800  0.816300  0.776726
    C   C18   0.692900  0.418500  0.338400  0.753913
    C   C19   0.653800  0.360700  0.384500  -0.108479
    C   C20   0.700200  0.293600  0.404600  -0.061774
    C   C21   0.667100  0.239600  0.447000  -0.248113
    C   C22   0.584800  0.253300  0.468400  0.230024
    C   C23   0.537900  0.320500  0.446100  -0.209892
    C   C24   0.572200  0.373800  0.404800  -0.079074
    C   C25   0.541600  0.195600  0.513600  -0.387465
    C   C26   0.483300  0.136500  0.476700  0.624572
    C   C27   0.604400  0.142400  0.548900  0.681069
    C   C28   0.490000  0.248400  0.557500  0.249466
    C   C29   0.531900  0.315500  0.584000  -0.218356
    C   C30   0.490000  0.367400  0.622300  -0.034192
    C   C31   0.404900  0.354300  0.635200  -0.171181
    C   C32   0.365400  0.286800  0.610800  -0.064064
    C   C33   0.406600  0.233600  0.572500  -0.228097
    C   C34   0.358000  0.413600  0.674100  0.767329
    C   C35   0.663100  0.737000  0.274100  0.043533
    C   C36   0.625800  0.814400  0.280500  0.018906
    C   C37   0.538400  0.820300  0.278200  -0.204464
    C   C38   0.492800  0.747800  0.272700  -0.071634
    C   C39   0.535300  0.671200  0.268300  0.170263
    C   C40   0.496500  0.901700  0.279400  0.549352
    C   C41   0.529500  0.107400  0.273600  0.505904
    C   C42   0.485300  0.187500  0.268600  -0.224445
    C   C43   0.529400  0.261800  0.271300  -0.030273
    C   C44   0.487500  0.335600  0.266300  0.118759
    C   C45   0.361000  0.265600  0.255200  0.023036
    C   C46   0.399300  0.190600  0.260600  0.066953
    C   C47   0.333800  0.420300  0.830300  0.785524
    C   C48   0.370700  0.367700  0.877000  -0.137560
    C   C49   0.331700  0.296800  0.897900  -0.026879
    C   C50   0.368700  0.247200  0.941100  -0.254151
    C   C51   0.446300  0.269200  0.964800  0.275344
    C   C52   0.486300  0.341400  0.944700  -0.191231
    C   C53   0.449500  0.388700  0.901600  -0.093109
    C   C54   0.494300  0.213600  0.009900  -0.515199
    C   C55   0.555200  0.158900  0.973900  0.715857
    C   C56   0.435900  0.155200  0.045200  0.718176
    C   C57   0.540400  0.267900  0.055600  0.279827
    C   C58   0.496700  0.333000  0.082200  -0.231014
    C   C59   0.534900  0.384700  0.123800  0.013478
    C   C60   0.617900  0.370300  0.139700  -0.188120
    C   C61   0.663200  0.305600  0.114500  -0.066804
    C   C62   0.624200  0.255300  0.072800  -0.240732
    C   C63   0.662000  0.426200  0.183700  0.776751
    C   C64   0.192900  0.581500  0.661600  0.753924
    C   C65   0.153800  0.639300  0.615500  -0.108456
    C   C66   0.200200  0.706400  0.595400  -0.061810
    C   C67   0.167100  0.760400  0.553000  -0.248116
    C   C68   0.084800  0.746700  0.531600  0.230048
    C   C69   0.037900  0.679500  0.553900  -0.209890
    C   C70   0.072200  0.626200  0.595200  -0.079107
    C   C71   0.041600  0.804400  0.486400  -0.387488
    C   C72   0.983300  0.863500  0.523300  0.624594
    C   C73   0.104400  0.857600  0.451100  0.681051
    C   C74   0.990000  0.751600  0.442500  0.249468
    C   C75   0.031900  0.684500  0.416000  -0.218359
    C   C76   0.990000  0.632600  0.377700  -0.034196
    C   C77   0.904900  0.645700  0.364800  -0.171165
    C   C78   0.865400  0.713200  0.389200  -0.064076
    C   C79   0.906600  0.766400  0.427500  -0.228089
    C   C80   0.858000  0.586400  0.325900  0.767306
    C   C81   0.163100  0.263000  0.725900  0.043555
    C   C82   0.125800  0.185600  0.719500  0.018845
    C   C83   0.038400  0.179700  0.721800  -0.204365
    C   C84   0.992800  0.252200  0.727300  -0.071661
    C   C85   0.035300  0.328800  0.731700  0.170240
    C   C86   0.996500  0.098300  0.720600  0.549277
    C   C87   0.029500  0.892600  0.726400  0.505837
    C   C88   0.985300  0.812500  0.731400  -0.224404
    C   C89   0.029400  0.738200  0.728700  -0.030267
    C   C90   0.987500  0.664400  0.733700  0.118750
    C   C91   0.861000  0.734400  0.744800  0.023082
    C   C92   0.899300  0.809400  0.739400  0.066899
    C   C93   0.833800  0.420300  0.669700  0.785534
    C   C94   0.870700  0.367700  0.623000  -0.137556
    C   C95   0.831700  0.296800  0.602100  -0.026872
    C   C96   0.868700  0.247200  0.558900  -0.254167
    C   C97   0.946300  0.269200  0.535200  0.275265
    C   C98   0.986300  0.341400  0.555300  -0.191177
    C   C99   0.949500  0.388700  0.598400  -0.093131
    C   C100  0.994300  0.213600  0.490100  -0.515170
    C   C101  0.055200  0.158900  0.526100  0.715870
    C   C102  0.935900  0.155200  0.454800  0.718164
    C   C103  0.040400  0.267900  0.444400  0.279855
    C   C104  0.996700  0.333000  0.417800  -0.231063
    C   C105  0.034900  0.384700  0.376200  0.013499
    C   C106  0.117900  0.370300  0.360300  -0.188121
    C   C107  0.163200  0.305600  0.385500  -0.066791
    C   C108  0.124200  0.255300  0.427200  -0.240751
    C   C109  0.162000  0.426200  0.316300  0.776738
    C   C110  0.692900  0.581500  0.838400  0.753904
    C   C111  0.653800  0.639300  0.884500  -0.108471
    C   C112  0.700200  0.706400  0.904600  -0.061781
    C   C113  0.667100  0.760400  0.947000  -0.248125
    C   C114  0.584800  0.746700  0.968400  0.230029
    C   C115  0.537900  0.679500  0.946100  -0.209892
    C   C116  0.572200  0.626200  0.904800  -0.079074
    C   C117  0.541600  0.804400  0.013600  -0.387439
    C   C118  0.483300  0.863500  0.976700  0.624546
    C   C119  0.604400  0.857600  0.048900  0.681056
    C   C120  0.490000  0.751600  0.057500  0.249458
    C   C121  0.531900  0.684500  0.084000  -0.218356
    C   C122  0.490000  0.632600  0.122300  -0.034189
    C   C123  0.404900  0.645700  0.135200  -0.171173
    C   C124  0.365400  0.713200  0.110800  -0.064070
    C   C125  0.406600  0.766400  0.072500  -0.228093
    C   C126  0.358000  0.586400  0.174100  0.767315
    C   C127  0.663100  0.263000  0.774100  0.043528
    C   C128  0.625800  0.185600  0.780500  0.018911
    C   C129  0.538400  0.179700  0.778200  -0.204479
    C   C130  0.492800  0.252200  0.772700  -0.071627
    C   C131  0.535300  0.328800  0.768300  0.170264
    C   C132  0.496500  0.098300  0.779400  0.549361
    C   C133  0.529500  0.892600  0.773600  0.505900
    C   C134  0.485300  0.812500  0.768600  -0.224434
    C   C135  0.529400  0.738200  0.771300  -0.030281
    C   C136  0.487500  0.664400  0.766300  0.118760
    C   C137  0.361000  0.734400  0.755200  0.023042
    C   C138  0.399300  0.809400  0.760600  0.066947
    C   C139  0.333800  0.579700  0.330300  0.785530
    C   C140  0.370700  0.632300  0.377000  -0.137549
    C   C141  0.331700  0.703200  0.397900  -0.026900
    C   C142  0.368700  0.752800  0.441100  -0.254136
    C   C143  0.446300  0.730800  0.464800  0.275352
    C   C144  0.486300  0.658600  0.444700  -0.191230
    C   C145  0.449500  0.611300  0.401600  -0.093123
    C   C146  0.494300  0.786400  0.509900  -0.515247
    C   C147  0.555200  0.841100  0.473900  0.715886
    C   C148  0.435900  0.844800  0.545200  0.718186
    C   C149  0.540400  0.732100  0.555600  0.279840
    C   C150  0.496700  0.667000  0.582200  -0.231011
    C   C151  0.534900  0.615300  0.623800  0.013468
    C   C152  0.617900  0.629700  0.639700  -0.188127
    C   C153  0.663200  0.694400  0.614500  -0.066804
    C   C154  0.624200  0.744700  0.572800  -0.240733
    C   C155  0.662000  0.573800  0.683700  0.776773
    C   C156  0.192900  0.418500  0.161600  0.753916
    C   C157  0.153800  0.360700  0.115500  -0.108467
    C   C158  0.200200  0.293600  0.095400  -0.061790
    C   C159  0.167100  0.239600  0.053000  -0.248132
    C   C160  0.084800  0.253300  0.031600  0.230037
    C   C161  0.037900  0.320500  0.053900  -0.209884
    C   C162  0.072200  0.373800  0.095200  -0.079090
    C   C163  0.041600  0.195600  0.986400  -0.387449
    C   C164  0.983300  0.136500  0.023300  0.624577
    C   C165  0.104400  0.142400  0.951100  0.681026
    C   C166  0.990000  0.248400  0.942500  0.249461
    C   C167  0.031900  0.315500  0.916000  -0.218384
    C   C168  0.990000  0.367400  0.877700  -0.034155
    C   C169  0.904900  0.354300  0.864800  -0.171184
    C   C170  0.865400  0.286800  0.889200  -0.064062
    C   C171  0.906600  0.233600  0.927500  -0.228087
    C   C172  0.858000  0.413600  0.825900  0.767301
    C   C173  0.163100  0.737000  0.225900  0.043545
    C   C174  0.125800  0.814400  0.219500  0.018901
    C   C175  0.038400  0.820300  0.221800  -0.204475
    C   C176  0.992800  0.747800  0.227300  -0.071621
    C   C177  0.035300  0.671200  0.231700  0.170258
    C   C178  0.996500  0.901700  0.220600  0.549366
    C   C179  0.029500  0.107400  0.226400  0.505914
    C   C180  0.985300  0.187500  0.231400  -0.224454
    C   C181  0.029400  0.261800  0.228700  -0.030265
    C   C182  0.987500  0.335600  0.233700  0.118754
    C   C183  0.861000  0.265600  0.244800  0.023044
    C   C184  0.899300  0.190600  0.239400  0.066951
    N   N1    0.618500  0.667100  0.268800  -0.214045
    N   N2    0.540900  0.968200  0.278200  -0.324559
    N   N3    0.487400  0.038800  0.276600  -0.322632
    N   N4    0.403600  0.338700  0.257700  -0.200844
    N   N5    0.118500  0.332900  0.731200  -0.214039
    N   N6    0.040900  0.031800  0.721800  -0.324550
    N   N7    0.987400  0.961200  0.723400  -0.322569
    N   N8    0.903600  0.661300  0.742300  -0.200867
    N   N9    0.618500  0.332900  0.768800  -0.214037
    N   N10   0.540900  0.031800  0.778200  -0.324567
    N   N11   0.487400  0.961200  0.776600  -0.322629
    N   N12   0.403600  0.661300  0.757700  -0.200852
    N   N13   0.118500  0.667100  0.231200  -0.214049
    N   N14   0.040900  0.968200  0.221800  -0.324565
    N   N15   0.987400  0.038800  0.223400  -0.322634
    N   N16   0.903600  0.338700  0.242300  -0.200846
    O   O1    0.762900  0.604100  0.191000  -0.691936
    O   O2    0.872900  0.516700  0.185000  -0.636026
    O   O3    0.233400  0.595700  0.799200  -0.678141
    O   O4    0.123700  0.508500  0.801200  -0.591329
    O   O5    0.766500  0.401700  0.322600  -0.648890
    O   O6    0.647700  0.478800  0.321400  -0.649115
    O   O7    0.396900  0.476600  0.693500  -0.578243
    O   O8    0.282300  0.397300  0.685200  -0.680730
    O   O9    0.262900  0.395900  0.809000  -0.691928
    O   O10   0.372900  0.483300  0.815000  -0.636016
    O   O11   0.733400  0.404300  0.200800  -0.678148
    O   O12   0.623700  0.491500  0.198800  -0.591348
    O   O13   0.266500  0.598300  0.677400  -0.648898
    O   O14   0.147700  0.521200  0.678600  -0.649123
    O   O15   0.896900  0.523400  0.306500  -0.578231
    O   O16   0.782300  0.602700  0.314800  -0.680725
    O   O17   0.762900  0.395900  0.691000  -0.691941
    O   O18   0.872900  0.483300  0.685000  -0.636019
    O   O19   0.233400  0.404300  0.299200  -0.678144
    O   O20   0.123700  0.491500  0.301200  -0.591340
    O   O21   0.766500  0.598300  0.822600  -0.648887
    O   O22   0.647700  0.521200  0.821400  -0.649112
    O   O23   0.396900  0.523400  0.193500  -0.578236
    O   O24   0.282300  0.602700  0.185200  -0.680726
    O   O25   0.262900  0.604100  0.309000  -0.691931
    O   O26   0.372900  0.516700  0.315000  -0.636021
    O   O27   0.733400  0.595700  0.700800  -0.678162
    O   O28   0.623700  0.508500  0.698800  -0.591353
    O   O29   0.266500  0.401700  0.177400  -0.648891
    O   O30   0.147700  0.478800  0.178600  -0.649119
    O   O31   0.896900  0.476600  0.806500  -0.578229
    O   O32   0.782300  0.397300  0.814800  -0.680719
    F   F1    0.014500  0.878100  0.071100  -0.214383
    F   F2    0.116500  0.795500  0.051070  -0.216779
    F   F3    0.090800  0.901600  0.995400  -0.186806
    F   F4    0.976800  0.880700  0.909770  -0.214208
    F   F5    0.901800  0.905700  0.986600  -0.210296
    F   F6    0.870600  0.802400  0.930500  -0.225696
    F   F7    0.421000  0.176700  0.450800  -0.191232
    F   F8    0.528100  0.099700  0.433200  -0.208168
    F   F9    0.450500  0.074500  0.509300  -0.169996
    F   F10   0.640500  0.082000  0.516900  -0.201593
    F   F11   0.565200  0.102800  0.594070  -0.240460
    F   F12   0.665400  0.187500  0.572670  -0.199812
    F   F13   0.514500  0.121900  0.928900  -0.214378
    F   F14   0.616500  0.204500  0.948930  -0.216777
    F   F15   0.590800  0.098400  0.004600  -0.186801
    F   F16   0.476800  0.119300  0.090230  -0.214214
    F   F17   0.401800  0.094300  0.013400  -0.210296
    F   F18   0.370600  0.197600  0.069500  -0.225700
    F   F19   0.921000  0.823300  0.549200  -0.191237
    F   F20   0.028100  0.900300  0.566800  -0.208176
    F   F21   0.950500  0.925500  0.490700  -0.169995
    F   F22   0.140500  0.918000  0.483100  -0.201592
    F   F23   0.065200  0.897200  0.405930  -0.240454
    F   F24   0.165400  0.812500  0.427330  -0.199807
    F   F25   0.014500  0.121900  0.571100  -0.214375
    F   F26   0.116500  0.204500  0.551070  -0.216777
    F   F27   0.090800  0.098400  0.495400  -0.186806
    F   F28   0.976800  0.119300  0.409770  -0.214218
    F   F29   0.901800  0.094300  0.486600  -0.210296
    F   F30   0.870600  0.197600  0.430500  -0.225693
    F   F31   0.421000  0.823300  0.950800  -0.191228
    F   F32   0.528100  0.900300  0.933200  -0.208165
    F   F33   0.450500  0.925500  0.009300  -0.169990
    F   F34   0.640500  0.918000  0.016900  -0.201593
    F   F35   0.565200  0.897200  0.094070  -0.240457
    F   F36   0.665400  0.812500  0.072670  -0.199810
    F   F37   0.514500  0.878100  0.428900  -0.214380
    F   F38   0.616500  0.795500  0.448930  -0.216778
    F   F39   0.590800  0.901600  0.504600  -0.186808
    F   F40   0.476800  0.880700  0.590230  -0.214217
    F   F41   0.401800  0.905700  0.513400  -0.210295
    F   F42   0.370600  0.802400  0.569500  -0.225703
    F   F43   0.921000  0.176700  0.049200  -0.191235
    F   F44   0.028100  0.099700  0.066800  -0.208175
    F   F45   0.950500  0.074500  0.990700  -0.169993
    F   F46   0.140500  0.082000  0.983100  -0.201588
    F   F47   0.065200  0.102800  0.905930  -0.240446
    F   F48   0.165400  0.187500  0.927330  -0.199799
