# Generated by REPEAT Assigner based on pymatgen
data_DB12-HAPHUD_clean
_audit_creation_date              2022-05-24
_audit_creation_method            REPEAT_Assigner
_cell_length_a                    11.381500
_cell_length_b                    20.067600
_cell_length_c                    29.437100
_cell_angle_alpha                 90.000000
_cell_angle_beta                  98.782000
_cell_angle_gamma                 90.000000
_cell_volume                      6644.592993
_symmetry_space_group_name_H-M    P1
_symmetry_Int_Tables_number       1
loop_
    _symmetry_equiv_pos_site_id
    _symmetry_equiv_pos_as_xyz
    1  x,y,z
loop_
    _atom_site_type_symbol
    _atom_site_label
    _atom_site_fract_x
    _atom_site_fract_y
    _atom_site_fract_z
    _atom_type_partial_charge
    Zn  Zn1   0.540990  0.923350  0.547220  1.075377
    Zn  Zn2   0.527070  0.578230  0.455790  1.065225
    Zn  Zn3   0.459010  0.423350  0.952780  1.075291
    Zn  Zn4   0.472930  0.078230  0.044210  1.065233
    Zn  Zn5   0.459010  0.076650  0.452780  1.075330
    Zn  Zn6   0.472930  0.421770  0.544210  1.065229
    Zn  Zn7   0.540990  0.576650  0.047220  1.075352
    Zn  Zn8   0.527070  0.921770  0.955790  1.065217
    H   H1    0.385400  0.615300  0.707600  0.331836
    H   H2    0.359000  0.622200  0.775100  0.375819
    H   H3    0.550100  0.694700  0.548500  0.174602
    H   H4    0.459600  0.569500  0.645300  0.185894
    H   H5    0.482000  0.771000  0.670300  0.184548
    H   H6    0.436900  0.570900  0.847100  0.213155
    H   H7    0.522900  0.694700  0.956100  0.221948
    H   H8    0.457400  0.771300  0.826600  0.203858
    H   H9    0.300800  0.887600  0.483600  0.090857
    H   H10   0.101500  0.888900  0.484000  0.101766
    H   H11   0.166000  0.961200  0.613900  0.161776
    H   H12   0.362600  0.959300  0.609600  0.099647
    H   H13   0.931500  0.845500  0.506200  0.162424
    H   H14   0.732600  0.850000  0.507600  0.090701
    H   H15   0.773600  0.996200  0.597600  0.092488
    H   H16   0.971400  0.999100  0.596200  0.124062
    H   H17   0.295100  0.514200  0.403600  0.090957
    H   H18   0.095800  0.509900  0.404300  0.135614
    H   H19   0.141200  0.645500  0.507500  0.122512
    H   H20   0.343300  0.647800  0.502700  0.063094
    H   H21   0.931700  0.484300  0.430600  0.142322
    H   H22   0.727100  0.487800  0.430500  0.045879
    H   H23   0.746800  0.666300  0.481700  0.074352
    H   H24   0.953800  0.664400  0.487700  0.175756
    H   H25   0.614600  0.115300  0.792400  0.331855
    H   H26   0.641000  0.122200  0.724900  0.375749
    H   H27   0.449900  0.194700  0.951500  0.174613
    H   H28   0.540400  0.069500  0.854700  0.185899
    H   H29   0.518000  0.271000  0.829700  0.184548
    H   H30   0.563100  0.070900  0.652900  0.213168
    H   H31   0.477100  0.194700  0.543900  0.221904
    H   H32   0.542600  0.271300  0.673400  0.203873
    H   H33   0.699200  0.387600  0.016400  0.090822
    H   H34   0.898500  0.388900  0.016000  0.101775
    H   H35   0.834000  0.461200  0.886100  0.161757
    H   H36   0.637400  0.459300  0.890400  0.099666
    H   H37   0.068500  0.345500  0.993800  0.162428
    H   H38   0.267400  0.350000  0.992400  0.090696
    H   H39   0.226400  0.496200  0.902400  0.092458
    H   H40   0.028600  0.499100  0.903800  0.124068
    H   H41   0.704900  0.014200  0.096400  0.090956
    H   H42   0.904200  0.009900  0.095700  0.135620
    H   H43   0.858800  0.145500  0.992500  0.122504
    H   H44   0.656700  0.147800  0.997300  0.063098
    H   H45   0.068300  0.984300  0.069400  0.142333
    H   H46   0.272900  0.987800  0.069500  0.045875
    H   H47   0.253200  0.166300  0.018300  0.074337
    H   H48   0.046200  0.164400  0.012300  0.175759
    H   H49   0.614600  0.384700  0.292400  0.331835
    H   H50   0.641000  0.377800  0.224900  0.375790
    H   H51   0.449900  0.305300  0.451500  0.174614
    H   H52   0.540400  0.430500  0.354700  0.185904
    H   H53   0.518000  0.229000  0.329700  0.184557
    H   H54   0.563100  0.429100  0.152900  0.213161
    H   H55   0.477100  0.305300  0.043900  0.221883
    H   H56   0.542600  0.228700  0.173400  0.203843
    H   H57   0.699200  0.112400  0.516400  0.090824
    H   H58   0.898500  0.111100  0.516000  0.101771
    H   H59   0.834000  0.038800  0.386100  0.161757
    H   H60   0.637400  0.040700  0.390400  0.099667
    H   H61   0.068500  0.154500  0.493800  0.162421
    H   H62   0.267400  0.150000  0.492400  0.090695
    H   H63   0.226400  0.003800  0.402400  0.092466
    H   H64   0.028600  0.000900  0.403800  0.124065
    H   H65   0.704900  0.485800  0.596400  0.090961
    H   H66   0.904200  0.490100  0.595700  0.135638
    H   H67   0.858800  0.354500  0.492500  0.122547
    H   H68   0.656700  0.352200  0.497300  0.062998
    H   H69   0.068300  0.515700  0.569400  0.142324
    H   H70   0.272900  0.512200  0.569500  0.045886
    H   H71   0.253200  0.333700  0.518300  0.074339
    H   H72   0.046200  0.335600  0.512300  0.175763
    H   H73   0.385400  0.884700  0.207600  0.331832
    H   H74   0.359000  0.877800  0.275100  0.375805
    H   H75   0.550100  0.805300  0.048500  0.174623
    H   H76   0.459600  0.930500  0.145300  0.185888
    H   H77   0.482000  0.729000  0.170300  0.184561
    H   H78   0.436900  0.929100  0.347100  0.213148
    H   H79   0.522900  0.805300  0.456100  0.221952
    H   H80   0.457400  0.728700  0.326600  0.203839
    H   H81   0.300800  0.612400  0.983600  0.090846
    H   H82   0.101500  0.611100  0.984000  0.101771
    H   H83   0.166000  0.538800  0.113900  0.161774
    H   H84   0.362600  0.540700  0.109600  0.099654
    H   H85   0.931500  0.654500  0.006200  0.162422
    H   H86   0.732600  0.650000  0.007600  0.090698
    H   H87   0.773600  0.503800  0.097600  0.092487
    H   H88   0.971400  0.500900  0.096200  0.124068
    H   H89   0.295100  0.985800  0.903600  0.090948
    H   H90   0.095800  0.990100  0.904300  0.135616
    H   H91   0.141200  0.854500  0.007500  0.122511
    H   H92   0.343300  0.852200  0.002700  0.063117
    H   H93   0.931700  0.015700  0.930600  0.142325
    H   H94   0.727100  0.012200  0.930500  0.045870
    H   H95   0.746800  0.833700  0.981700  0.074371
    H   H96   0.953800  0.835600  0.987700  0.175765
    C   C1    0.529100  0.812800  0.590200  0.627160
    C   C2    0.512100  0.742900  0.605900  -0.001782
    C   C3    0.525200  0.688200  0.577500  -0.191631
    C   C4    0.502000  0.625500  0.591900  -0.023275
    C   C5    0.471800  0.613700  0.635400  -0.303020
    C   C6    0.459900  0.668200  0.664600  0.338186
    C   C7    0.484400  0.734100  0.650200  -0.266125
    C   C8    0.515300  0.565100  0.562000  0.790154
    C   C9    0.449000  0.687600  0.746600  0.888428
    C   C10   0.445700  0.668900  0.829600  0.494761
    C   C11   0.451400  0.614600  0.859100  -0.422286
    C   C12   0.478500  0.624800  0.906400  0.081950
    C   C13   0.500800  0.688300  0.923900  -0.309906
    C   C14   0.490700  0.742300  0.894400  0.034863
    C   C15   0.463500  0.734000  0.846700  -0.322885
    C   C16   0.488100  0.564100  0.937500  0.703998
    C   C17   0.507800  0.811500  0.912000  0.610203
    C   C18   0.272100  0.904200  0.510100  0.064110
    C   C19   0.153600  0.903800  0.510400  -0.153772
    C   C20   0.107200  0.924700  0.549000  0.120924
    C   C21   0.191800  0.946300  0.586500  -0.308720
    C   C22   0.308100  0.945700  0.583500  0.166848
    C   C23   0.979600  0.922200  0.551000  0.173270
    C   C24   0.901200  0.877800  0.525000  -0.344916
    C   C25   0.782500  0.880300  0.526400  0.222442
    C   C26   0.805900  0.965500  0.578300  0.108811
    C   C27   0.924300  0.967000  0.577900  -0.206610
    C   C28   0.262600  0.541200  0.425100  0.166881
    C   C29   0.144200  0.538700  0.424900  -0.258532
    C   C30   0.094500  0.578400  0.454800  0.135977
    C   C31   0.171800  0.618700  0.485400  -0.235100
    C   C32   0.292700  0.618900  0.483000  0.158190
    C   C33   0.962300  0.575900  0.456000  0.201375
    C   C34   0.896300  0.523000  0.441300  -0.244915
    C   C35   0.772000  0.525700  0.442000  0.135515
    C   C36   0.783000  0.627300  0.471900  0.167177
    C   C37   0.908200  0.628000  0.473900  -0.361274
    C   C38   0.470900  0.312800  0.909800  0.627070
    C   C39   0.487900  0.242900  0.894100  -0.001749
    C   C40   0.474800  0.188200  0.922500  -0.191670
    C   C41   0.498000  0.125500  0.908100  -0.023238
    C   C42   0.528200  0.113700  0.864600  -0.303032
    C   C43   0.540100  0.168200  0.835400  0.338138
    C   C44   0.515600  0.234100  0.849800  -0.266107
    C   C45   0.484700  0.065100  0.938000  0.790139
    C   C46   0.551000  0.187600  0.753400  0.888387
    C   C47   0.554300  0.168900  0.670400  0.494695
    C   C48   0.548600  0.114600  0.640900  -0.422314
    C   C49   0.521500  0.124800  0.593600  0.082136
    C   C50   0.499200  0.188300  0.576100  -0.309932
    C   C51   0.509300  0.242300  0.605600  0.034907
    C   C52   0.536500  0.234000  0.653300  -0.322931
    C   C53   0.511900  0.064100  0.562500  0.703757
    C   C54   0.492200  0.311500  0.588000  0.610114
    C   C55   0.727900  0.404200  0.989900  0.064165
    C   C56   0.846400  0.403800  0.989600  -0.153781
    C   C57   0.892800  0.424700  0.951000  0.120893
    C   C58   0.808200  0.446300  0.913500  -0.308661
    C   C59   0.691900  0.445700  0.916500  0.166786
    C   C60   0.020400  0.422200  0.949000  0.173283
    C   C61   0.098800  0.377800  0.975000  -0.344930
    C   C62   0.217500  0.380300  0.973600  0.222469
    C   C63   0.194100  0.465500  0.921700  0.108861
    C   C64   0.075700  0.467000  0.922100  -0.206624
    C   C65   0.737400  0.041200  0.074900  0.166882
    C   C66   0.855800  0.038700  0.075100  -0.258539
    C   C67   0.905500  0.078400  0.045200  0.135969
    C   C68   0.828200  0.118700  0.014600  -0.235085
    C   C69   0.707300  0.118900  0.017000  0.158183
    C   C70   0.037700  0.075900  0.044000  0.201413
    C   C71   0.103700  0.023000  0.058700  -0.244977
    C   C72   0.228000  0.025700  0.058000  0.135573
    C   C73   0.217000  0.127300  0.028100  0.167205
    C   C74   0.091800  0.128000  0.026100  -0.361294
    C   C75   0.470900  0.187200  0.409800  0.627099
    C   C76   0.487900  0.257100  0.394100  -0.001778
    C   C77   0.474800  0.311800  0.422500  -0.191648
    C   C78   0.498000  0.374500  0.408100  -0.023255
    C   C79   0.528200  0.386300  0.364600  -0.303028
    C   C80   0.540100  0.331800  0.335400  0.338197
    C   C81   0.515600  0.265900  0.349800  -0.266130
    C   C82   0.484700  0.434900  0.438000  0.790138
    C   C83   0.551000  0.312400  0.253400  0.888440
    C   C84   0.554300  0.331100  0.170400  0.494694
    C   C85   0.548600  0.385400  0.140900  -0.422297
    C   C86   0.521500  0.375200  0.093600  0.082088
    C   C87   0.499200  0.311700  0.076100  -0.309868
    C   C88   0.509300  0.257700  0.105600  0.034820
    C   C89   0.536500  0.266000  0.153300  -0.322840
    C   C90   0.511900  0.435900  0.062500  0.703768
    C   C91   0.492200  0.188500  0.088000  0.610147
    C   C92   0.727900  0.095800  0.489900  0.064146
    C   C93   0.846400  0.096200  0.489600  -0.153766
    C   C94   0.892800  0.075300  0.451000  0.120881
    C   C95   0.808200  0.053700  0.413500  -0.308645
    C   C96   0.691900  0.054300  0.416500  0.166762
    C   C97   0.020400  0.077800  0.449000  0.173267
    C   C98   0.098800  0.122200  0.475000  -0.344901
    C   C99   0.217500  0.119700  0.473600  0.222440
    C   C100  0.194100  0.034500  0.421700  0.108841
    C   C101  0.075700  0.033000  0.422100  -0.206610
    C   C102  0.737400  0.458800  0.574900  0.166932
    C   C103  0.855800  0.461300  0.575100  -0.258623
    C   C104  0.905500  0.421600  0.545200  0.136066
    C   C105  0.828200  0.381300  0.514600  -0.235291
    C   C106  0.707300  0.381100  0.517000  0.158491
    C   C107  0.037700  0.424100  0.544000  0.201385
    C   C108  0.103700  0.477000  0.558700  -0.244945
    C   C109  0.228000  0.474300  0.558000  0.135530
    C   C110  0.217000  0.372700  0.528100  0.167190
    C   C111  0.091800  0.372000  0.526100  -0.361284
    C   C112  0.529100  0.687200  0.090200  0.627177
    C   C113  0.512100  0.757100  0.105900  -0.001771
    C   C114  0.525200  0.811800  0.077500  -0.191656
    C   C115  0.502000  0.874500  0.091900  -0.023281
    C   C116  0.471800  0.886300  0.135400  -0.303005
    C   C117  0.459900  0.831800  0.164600  0.338196
    C   C118  0.484400  0.765900  0.150200  -0.266147
    C   C119  0.515300  0.934900  0.062000  0.790159
    C   C120  0.449000  0.812400  0.246600  0.888445
    C   C121  0.445700  0.831100  0.329600  0.494734
    C   C122  0.451400  0.885400  0.359100  -0.422266
    C   C123  0.478500  0.875200  0.406400  0.081941
    C   C124  0.500800  0.811700  0.423900  -0.309920
    C   C125  0.490700  0.757700  0.394400  0.034887
    C   C126  0.463500  0.766000  0.346700  -0.322857
    C   C127  0.488100  0.935900  0.437500  0.704025
    C   C128  0.507800  0.688500  0.412000  0.610100
    C   C129  0.272100  0.595800  0.010100  0.064127
    C   C130  0.153600  0.596200  0.010400  -0.153783
    C   C131  0.107200  0.575300  0.049000  0.120930
    C   C132  0.191800  0.553700  0.086500  -0.308725
    C   C133  0.308100  0.554300  0.083500  0.166846
    C   C134  0.979600  0.577800  0.051000  0.173266
    C   C135  0.901200  0.622200  0.025000  -0.344911
    C   C136  0.782500  0.619700  0.026400  0.222445
    C   C137  0.805900  0.534500  0.078300  0.108799
    C   C138  0.924300  0.533000  0.077900  -0.206609
    C   C139  0.262600  0.958800  0.925100  0.166898
    C   C140  0.144200  0.961300  0.924900  -0.258540
    C   C141  0.094500  0.921600  0.954800  0.135967
    C   C142  0.171800  0.881300  0.985400  -0.235104
    C   C143  0.292700  0.881100  0.983000  0.158173
    C   C144  0.962300  0.924100  0.956000  0.201436
    C   C145  0.896300  0.977000  0.941300  -0.244968
    C   C146  0.772000  0.974300  0.942000  0.135566
    C   C147  0.783000  0.872700  0.971900  0.167176
    C   C148  0.908200  0.872000  0.973900  -0.361316
    N   N1    0.426200  0.652400  0.706600  -0.655431
    N   N2    0.410300  0.654800  0.782200  -0.792875
    N   N3    0.352000  0.927000  0.545200  -0.165180
    N   N4    0.730600  0.923200  0.552900  -0.231481
    N   N5    0.339600  0.580200  0.454300  -0.238126
    N   N6    0.711300  0.575900  0.457200  -0.156078
    N   N7    0.573800  0.152400  0.793400  -0.655398
    N   N8    0.589700  0.154800  0.717800  -0.792743
    N   N9    0.648000  0.427000  0.954800  -0.165179
    N   N10   0.269400  0.423200  0.947100  -0.231537
    N   N11   0.660400  0.080200  0.045700  -0.238131
    N   N12   0.288700  0.075900  0.042800  -0.156130
    N   N13   0.573800  0.347600  0.293400  -0.655447
    N   N14   0.589700  0.345200  0.217800  -0.792809
    N   N15   0.648000  0.073000  0.454800  -0.165161
    N   N16   0.269400  0.076800  0.447100  -0.231520
    N   N17   0.660400  0.419800  0.545700  -0.238244
    N   N18   0.288700  0.424100  0.542800  -0.156090
    N   N19   0.426200  0.847600  0.206600  -0.655439
    N   N20   0.410300  0.845200  0.282200  -0.792849
    N   N21   0.352000  0.573000  0.045200  -0.165183
    N   N22   0.730600  0.576800  0.052900  -0.231477
    N   N23   0.339600  0.919800  0.954300  -0.238115
    N   N24   0.711300  0.924100  0.957200  -0.156103
    O   O1    0.536900  0.860000  0.617800  -0.625714
    O   O2    0.537500  0.820500  0.547300  -0.680094
    O   O3    0.535600  0.571900  0.978100  -0.747471
    O   O4    0.445400  0.510900  0.919100  -0.673496
    O   O5    0.558700  0.574100  0.525700  -0.774354
    O   O6    0.479300  0.510300  0.575700  -0.693716
    O   O7    0.528600  0.819300  0.956400  -0.619241
    O   O8    0.500000  0.860100  0.885700  -0.635695
    O   O9    0.496800  0.741000  0.749900  -0.553961
    O   O10   0.463100  0.360000  0.882200  -0.625679
    O   O11   0.462500  0.320500  0.952700  -0.680000
    O   O12   0.464400  0.071900  0.521900  -0.747382
    O   O13   0.554600  0.010900  0.580900  -0.673482
    O   O14   0.441300  0.074100  0.974300  -0.774366
    O   O15   0.520700  0.010300  0.924300  -0.693692
    O   O16   0.471400  0.319300  0.543600  -0.619168
    O   O17   0.500000  0.360100  0.614300  -0.635648
    O   O18   0.503200  0.241000  0.750100  -0.553963
    O   O19   0.463100  0.140000  0.382200  -0.625686
    O   O20   0.462500  0.179500  0.452700  -0.680011
    O   O21   0.464400  0.428100  0.021900  -0.747365
    O   O22   0.554600  0.489100  0.080900  -0.673471
    O   O23   0.441300  0.425900  0.474300  -0.774359
    O   O24   0.520700  0.489700  0.424300  -0.693723
    O   O25   0.471400  0.180700  0.043600  -0.619161
    O   O26   0.500000  0.139900  0.114300  -0.635653
    O   O27   0.503200  0.259000  0.250100  -0.553979
    O   O28   0.536900  0.640000  0.117800  -0.625724
    O   O29   0.537500  0.679500  0.047300  -0.680104
    O   O30   0.535600  0.928100  0.478100  -0.747499
    O   O31   0.445400  0.989100  0.419100  -0.673518
    O   O32   0.558700  0.925900  0.025700  -0.774348
    O   O33   0.479300  0.989700  0.075700  -0.693719
    O   O34   0.528600  0.680700  0.456400  -0.619169
    O   O35   0.500000  0.639900  0.385700  -0.635642
    O   O36   0.496800  0.759000  0.249900  -0.553975
