# Generated by REPEAT Assigner based on pymatgen
data_DB12-cm503311x_alf450K_freeONLY
_audit_creation_date              2022-05-24
_audit_creation_method            REPEAT_Assigner
_cell_length_a                    6.568100
_cell_length_b                    16.392700
_cell_length_c                    13.166700
_cell_angle_alpha                 90.000000
_cell_angle_beta                  90.000000
_cell_angle_gamma                 90.000000
_cell_volume                      1417.644012
_symmetry_space_group_name_H-M    P1
_symmetry_Int_Tables_number       1
loop_
    _symmetry_equiv_pos_site_id
    _symmetry_equiv_pos_as_xyz
    1  x,y,z
loop_
    _atom_site_type_symbol
    _atom_site_label
    _atom_site_fract_x
    _atom_site_fract_y
    _atom_site_fract_z
    _atom_type_partial_charge
    O   O1   0.165800  0.168820  0.839400  -0.560192
    C   C1   0.805100  0.026600  0.953800  -0.151854
    O   O2   0.665800  0.668820  0.339400  -0.560199
    C   C2   0.305100  0.526600  0.453800  -0.152094
    O   O3   0.834200  0.331180  0.839400  -0.560175
    C   C3   0.194900  0.473400  0.953800  -0.152017
    O   O4   0.334200  0.831180  0.339400  -0.560124
    C   C4   0.694900  0.973400  0.453800  -0.151809
    O   O5   0.834200  0.668820  0.160600  -0.560204
    C   C5   0.194900  0.526600  0.046200  -0.152100
    O   O6   0.334200  0.168820  0.660600  -0.560269
    C   C6   0.694900  0.026600  0.546200  -0.152042
    O   O7   0.165800  0.831180  0.160600  -0.560117
    C   C7   0.805100  0.973400  0.046200  -0.151732
    O   O8   0.665800  0.331180  0.660600  -0.560114
    C   C8   0.305100  0.473400  0.546200  -0.151916
    O   O9   0.834200  0.831180  0.160600  -0.560100
    C   C9   0.194900  0.973400  0.046200  -0.151793
    O   O10  0.334200  0.331180  0.660600  -0.560128
    C   C10  0.694900  0.473400  0.546200  -0.151875
    O   O11  0.165800  0.668820  0.160600  -0.560217
    C   C11  0.805100  0.526600  0.046200  -0.152073
    O   O12  0.665800  0.168820  0.660600  -0.560255
    C   C12  0.305100  0.026600  0.546200  -0.152094
    O   O13  0.165800  0.331180  0.839400  -0.560187
    C   C13  0.805100  0.473400  0.953800  -0.151990
    O   O14  0.665800  0.831180  0.339400  -0.560110
    C   C14  0.305100  0.973400  0.453800  -0.151860
    O   O15  0.834200  0.168820  0.839400  -0.560174
    C   C15  0.194900  0.026600  0.953800  -0.151915
    O   O16  0.334200  0.668820  0.339400  -0.560212
    C   C16  0.694900  0.526600  0.453800  -0.152054
    Al  Al1  0.250000  0.250000  0.750000  1.597988
    Al  Al2  0.750000  0.250000  0.750000  1.597932
    Al  Al3  0.750000  0.750000  0.250000  1.597878
    Al  Al4  0.250000  0.750000  0.250000  1.597935
    F   F1   0.000000  0.250000  0.691300  -0.486712
    F   F2   0.500000  0.750000  0.191300  -0.486700
    F   F3   0.000000  0.750000  0.308700  -0.486706
    F   F4   0.500000  0.250000  0.808700  -0.486708
    C   C17  0.000000  0.063100  0.950800  0.310013
    C   C18  0.000000  0.136300  0.871700  0.558589
    C   C19  0.500000  0.563100  0.450800  0.310090
    C   C20  0.500000  0.636300  0.371700  0.558565
    C   C21  0.000000  0.436900  0.950800  0.310239
    C   C22  0.000000  0.363700  0.871700  0.558430
    C   C23  0.500000  0.936900  0.450800  0.310232
    C   C24  0.500000  0.863700  0.371700  0.558381
    C   C25  0.000000  0.563100  0.049200  0.310147
    C   C26  0.000000  0.636300  0.128300  0.558538
    C   C27  0.500000  0.063100  0.549200  0.310030
    C   C28  0.500000  0.136300  0.628300  0.558662
    C   C29  0.000000  0.936900  0.049200  0.310134
    C   C30  0.000000  0.863700  0.128300  0.558431
    C   C31  0.500000  0.436900  0.549200  0.310233
    C   C32  0.500000  0.363700  0.628300  0.558374
