# Generated by REPEAT Assigner based on pymatgen
data_DB12-GIRZAK_freeONLY
_audit_creation_date              2022-05-24
_audit_creation_method            REPEAT_Assigner
_cell_length_a                    13.838000
_cell_length_b                    13.844000
_cell_length_c                    14.420000
_cell_angle_alpha                 108.310000
_cell_angle_beta                  110.430000
_cell_angle_gamma                 107.046000
_cell_volume                      2191.328062
_symmetry_space_group_name_H-M    P1
_symmetry_Int_Tables_number       1
loop_
    _symmetry_equiv_pos_site_id
    _symmetry_equiv_pos_as_xyz
    1  x,y,z
loop_
    _atom_site_type_symbol
    _atom_site_label
    _atom_site_fract_x
    _atom_site_fract_y
    _atom_site_fract_z
    _atom_type_partial_charge
    Zn  Zn1  0.447000  0.726000  0.599800  1.210110
    Zn  Zn2  0.500000  0.500000  0.500000  1.249434
    Zn  Zn3  0.553000  0.274000  0.400200  1.210117
    Zn  Zn4  0.155900  0.369300  0.600200  1.226331
    Zn  Zn5  0.844100  0.630700  0.399800  1.226246
    Zn  Zn6  0.000000  0.500000  0.500000  1.223454
    H   H1   0.858300  0.004400  0.759700  0.148917
    H   H2   0.554600  0.616200  0.117000  0.177454
    H   H3   0.219400  0.592300  0.295600  0.081367
    H   H4   0.125400  0.656300  0.766800  0.071477
    H   H5   0.924500  0.777000  0.704500  0.130246
    H   H6   0.357400  0.393000  0.229700  0.075336
    H   H7   0.874600  0.343700  0.233200  0.071482
    H   H8   0.445200  0.992500  0.872100  0.173294
    H   H9   0.598800  0.857000  0.057600  0.120186
    H   H10  0.623700  0.228400  0.697800  0.057808
    H   H11  0.445400  0.383800  0.883000  0.177433
    H   H12  0.814600  0.754700  0.917100  0.062823
    H   H13  0.853800  0.456400  0.903500  -0.033068
    H   H14  0.557600  0.294300  0.953600  0.113810
    H   H15  0.748200  0.636100  0.564700  0.163504
    H   H16  0.777500  0.506700  0.009100  0.139265
    H   H17  0.075500  0.223000  0.295500  0.130253
    H   H18  0.376300  0.771600  0.302200  0.057811
    H   H19  0.554800  0.007500  0.127900  0.173273
    H   H20  0.185400  0.245300  0.082900  0.062813
    H   H21  0.582200  0.866200  0.857300  0.027640
    H   H22  0.814300  0.421400  0.562000  0.181629
    H   H23  0.897800  0.350000  0.083000  0.017730
    H   H24  0.772000  0.003400  0.991300  0.119464
    H   H25  0.062500  0.654300  0.056900  0.072940
    H   H26  0.962900  0.225100  0.631300  0.008778
    H   H27  0.251800  0.363900  0.435300  0.163451
    H   H28  0.937500  0.345700  0.943100  0.072942
    H   H29  0.069100  0.956200  0.694600  0.107002
    H   H30  0.222500  0.493300  0.990900  0.139270
    H   H31  0.904600  0.255000  0.764400  0.112641
    H   H32  0.669000  0.888500  0.624300  0.030438
    H   H33  0.331000  0.111500  0.375700  0.030445
    H   H34  0.102200  0.650000  0.917000  0.017723
    H   H35  0.277300  0.475400  0.859900  0.035410
    H   H36  0.576800  0.444300  0.375000  0.506823
    H   H37  0.095400  0.745000  0.235600  0.112639
    H   H38  0.780600  0.407700  0.704400  0.081368
    H   H39  0.417800  0.133800  0.142700  0.027637
    H   H40  0.037100  0.774900  0.368700  0.008791
    H   H41  0.930900  0.043800  0.305400  0.107018
    H   H42  0.141700  0.995600  0.240300  0.148899
    H   H43  0.642600  0.607000  0.770300  0.075304
    H   H44  0.442400  0.705700  0.046400  0.113810
    H   H45  0.228000  0.996600  0.008700  0.119474
    H   H46  0.722700  0.524600  0.140100  0.035446
    H   H47  0.201800  0.564700  0.626800  0.523341
    H   H48  0.798200  0.435300  0.373200  0.523327
    H   H49  0.185700  0.578600  0.438000  0.181636
    H   H50  0.146200  0.543600  0.096500  -0.033056
    H   H51  0.423200  0.555700  0.625000  0.506781
    H   H52  0.401200  0.143000  0.942400  0.120177
    C   C1   0.125000  0.533000  0.365100  -0.027513
    C   C2   0.924000  0.241000  0.416600  0.646317
    C   C3   0.458700  0.342000  0.743900  -0.012660
    C   C4   0.698200  0.642000  0.754000  0.074677
    C   C5   0.629000  0.611000  0.307000  0.844543
    C   C6   0.805000  0.735000  0.845000  -0.105027
    C   C7   0.979000  0.302000  0.783000  -0.181485
    C   C8   0.994000  0.916000  0.921000  -0.046613
    C   C9   0.041400  0.597000  0.845500  0.011205
    C   C10  0.673000  0.197000  0.308000  0.805641
    C   C11  0.453000  0.702000  0.112200  0.024837
    C   C12  0.833000  0.008000  0.886000  0.340206
    C   C13  0.655000  0.925000  0.121300  0.062940
    C   C14  0.039000  0.932000  0.039000  -0.173955
    C   C15  0.751000  0.973000  0.916000  -0.246529
    C   C16  0.597500  0.256000  0.829000  -0.170391
    C   C17  0.799000  0.568000  0.161500  0.316410
    C   C18  0.201000  0.432000  0.838500  0.316477
    C   C19  0.402500  0.744000  0.171000  -0.170401
    C   C20  0.167000  0.992000  0.114000  0.340228
    C   C21  0.948000  0.613000  0.113400  0.161164
    C   C22  0.014000  0.285000  0.703000  0.346733
    C   C23  0.479700  0.691000  0.308900  -0.115647
    C   C24  0.944800  0.397000  0.247900  0.056326
    C   C25  0.770000  0.942000  0.178000  -0.226573
    C   C26  0.132000  0.251000  0.277000  -0.232014
    C   C27  0.994200  0.415000  0.952500  -0.178094
    C   C28  0.690000  0.906000  0.698000  0.257558
    C   C29  0.168000  0.445000  0.916000  -0.318727
    C   C30  0.958600  0.403000  0.154500  0.011203
    C   C31  0.240000  0.341000  0.363000  0.068909
    C   C32  0.169300  0.868000  0.682200  -0.075756
    C   C33  0.327000  0.803000  0.692000  0.805699
    C   C34  0.371000  0.389000  0.693000  0.844638
    C   C35  0.488900  0.677000  0.411400  0.700637
    C   C36  0.145900  0.544000  0.278000  -0.088392
    C   C37  0.310000  0.094000  0.302000  0.257539
    C   C38  0.803000  0.977000  0.780000  -0.210065
    C   C39  0.523200  0.651000  0.156000  -0.225871
    C   C40  0.055200  0.603000  0.752100  0.056343
    C   C41  0.006000  0.084000  0.079000  -0.046601
    C   C42  0.854100  0.456000  0.722000  -0.088387
    C   C43  0.547000  0.298000  0.887800  0.024835
    C   C44  0.636000  0.894000  0.836000  0.288998
    C   C45  0.945500  0.520000  0.836900  -0.156088
    C   C46  0.005800  0.585000  0.047500  -0.178088
    C   C47  0.195000  0.265000  0.155000  -0.105008
    C   C48  0.961000  0.068000  0.961000  -0.173943
    C   C49  0.894000  0.798000  0.834000  0.195152
    C   C50  0.230000  0.058000  0.822000  -0.226594
    C   C51  0.830700  0.132000  0.317800  -0.075695
    C   C52  0.868000  0.749000  0.723000  -0.231999
    C   C53  0.587600  0.259000  0.734000  0.034214
    C   C54  0.301800  0.358000  0.246000  0.074628
    C   C55  0.511100  0.323000  0.588600  0.700620
    C   C56  0.476800  0.349000  0.844000  -0.225836
    C   C57  0.371000  0.985000  0.836000  -0.261778
    C   C58  0.285000  0.886000  0.738000  0.035080
    C   C59  0.760000  0.659000  0.637000  0.068841
    C   C60  0.197000  0.023000  0.220000  -0.210043
    C   C61  0.052000  0.387000  0.886600  0.161206
    C   C62  0.364000  0.106000  0.164000  0.289018
    C   C63  0.935600  0.493000  0.924100  0.322561
    C   C64  0.412400  0.741000  0.266000  0.034212
    C   C65  0.143000  0.962000  0.728000  -0.036496
    C   C66  0.021000  0.698000  0.217000  -0.181431
    C   C67  0.106000  0.202000  0.166000  0.195135
    C   C68  0.520300  0.309000  0.691100  -0.115606
    C   C69  0.715000  0.114000  0.262000  0.035042
    C   C70  0.249000  0.027000  0.084000  -0.246560
    C   C71  0.832000  0.555000  0.084000  -0.318704
    C   C72  0.875000  0.467000  0.634900  -0.027506
    C   C73  0.054500  0.480000  0.163100  -0.156060
    C   C74  0.076000  0.759000  0.583400  0.646334
    C   C75  0.541300  0.658000  0.256100  -0.012565
    C   C76  0.345000  0.075000  0.878700  0.062963
    C   C77  0.629000  0.015000  0.164000  -0.261736
    C   C78  0.857000  0.038000  0.272000  -0.036541
    C   C79  0.986000  0.715000  0.297000  0.346653
    C   C80  0.064400  0.507000  0.075900  0.322514
    N   N1   0.874200  0.644200  0.271000  -0.579938
    N   N2   0.326000  0.791000  0.123000  0.727112
    N   N3   0.125800  0.355800  0.729000  -0.580042
    N   N4   0.202000  0.153000  0.866000  0.776426
    N   N5   0.025400  0.461500  0.351000  -0.177674
    N   N6   0.672500  0.602000  0.649900  -0.219182
    N   N7   0.327500  0.398000  0.350100  -0.219188
    N   N8   0.798000  0.847000  0.134000  0.776415
    N   N9   0.603600  0.858000  0.724000  -0.541029
    N   N10  0.396400  0.142000  0.276000  -0.541027
    N   N11  0.674000  0.209000  0.877000  0.727098
    N   N12  0.974600  0.538500  0.649000  -0.177684
    O   O1   0.728300  0.684900  0.386300  -0.753814
    O   O2   0.569200  0.420400  0.420700  -1.217761
    O   O3   0.101000  0.130000  0.831000  -0.416508
    O   O4   0.663000  0.186000  0.949900  -0.433985
    O   O5   0.467700  0.382900  0.561800  -0.632054
    O   O6   0.149900  0.496200  0.582800  -1.237841
    O   O7   0.906000  0.324800  0.444000  -0.604610
    O   O8   0.736100  0.190000  0.838000  -0.389762
    O   O9   0.555000  0.271900  0.537400  -0.604564
    O   O10  0.337000  0.814000  0.050100  -0.433982
    O   O11  0.445000  0.728100  0.462600  -0.604557
    O   O12  0.271700  0.315100  0.613700  -0.753842
    O   O13  0.094000  0.675200  0.556000  -0.604614
    O   O14  0.850100  0.503800  0.417200  -1.237796
    O   O15  0.664700  0.257300  0.258300  -0.648148
    O   O16  0.430800  0.579600  0.579300  -1.217731
    O   O17  0.977900  0.762300  0.537000  -0.618529
    O   O18  0.346300  0.797900  0.613000  -0.734425
    O   O19  0.286000  0.244000  0.943000  -0.442826
    O   O20  0.022100  0.237700  0.463000  -0.618554
    O   O21  0.653700  0.202100  0.387000  -0.734396
    O   O22  0.404800  0.492000  0.743100  -0.654488
    O   O23  0.335300  0.742700  0.741700  -0.648176
    O   O24  0.714000  0.756000  0.057000  -0.442834
    O   O25  0.899000  0.870000  0.169000  -0.416499
    O   O26  0.532300  0.617100  0.438200  -0.632056
    O   O27  0.263900  0.810000  0.162000  -0.389767
    O   O28  0.595200  0.508000  0.256900  -0.654511
