# Generated by REPEAT Assigner based on pymatgen
data_DB12-WICGEV_clean
_audit_creation_date              2022-05-24
_audit_creation_method            REPEAT_Assigner
_cell_length_a                    10.197900
_cell_length_b                    11.784300
_cell_length_c                    14.919900
_cell_angle_alpha                 91.800300
_cell_angle_beta                  90.000000
_cell_angle_gamma                 90.000000
_cell_volume                      1792.115635
_symmetry_space_group_name_H-M    P1
_symmetry_Int_Tables_number       1
loop_
    _symmetry_equiv_pos_site_id
    _symmetry_equiv_pos_as_xyz
    1  x,y,z
loop_
    _atom_site_type_symbol
    _atom_site_label
    _atom_site_fract_x
    _atom_site_fract_y
    _atom_site_fract_z
    _atom_type_partial_charge
    Mn  Mn1   0.932950  0.989810  0.562680  1.322836
    Mn  Mn2   0.620820  0.990270  0.618910  1.379864
    Mn  Mn3   0.541580  0.744740  0.747800  1.458521
    Mn  Mn4   0.456850  0.503450  0.881270  1.378969
    Mn  Mn5   0.143600  0.512660  0.935480  1.363544
    Mn  Mn6   0.539580  0.244990  0.752370  1.383574
    Mn  Mn7   0.432950  0.010190  0.437320  1.322835
    Mn  Mn8   0.120820  0.009730  0.381090  1.379864
    Mn  Mn9   0.041580  0.255260  0.252200  1.458522
    Mn  Mn10  0.956850  0.496550  0.118730  1.378971
    Mn  Mn11  0.643600  0.487340  0.064520  1.363540
    Mn  Mn12  0.039580  0.755010  0.247630  1.383576
    H   H1    0.783000  0.902800  0.380400  -0.038991
    H   H2    0.918300  0.181100  0.711000  0.011636
    H   H3    0.993800  0.734000  0.507700  -0.024982
    H   H4    0.836000  0.745400  0.721700  0.007670
    H   H5    0.392400  0.046900  0.826700  -0.004775
    H   H6    0.830500  0.213800  0.471900  0.007160
    H   H7    0.254700  0.750700  0.774700  -0.003964
    H   H8    0.695800  0.441900  0.678400  -0.018414
    H   H9    0.748300  0.703600  0.968600  -0.006423
    H   H10   0.293200  0.603100  0.114400  -0.014691
    H   H11   0.164900  0.306900  0.789100  0.005990
    H   H12   0.566000  0.229300  0.014300  -0.030563
    H   H13   0.283000  0.097200  0.619600  -0.038992
    H   H14   0.418300  0.818900  0.289000  0.011636
    H   H15   0.493800  0.266000  0.492300  -0.024983
    H   H16   0.336000  0.254600  0.278300  0.007669
    H   H17   0.892400  0.953100  0.173300  -0.004775
    H   H18   0.330500  0.786200  0.528100  0.007160
    H   H19   0.754700  0.249300  0.225300  -0.003964
    H   H20   0.195800  0.558100  0.321600  -0.018414
    H   H21   0.248300  0.296400  0.031400  -0.006423
    H   H22   0.793200  0.396900  0.885600  -0.014688
    H   H23   0.664900  0.693100  0.210900  0.005991
    H   H24   0.066000  0.770700  0.985700  -0.030564
    C   C1    0.714500  0.927900  0.417100  0.780333
    C   C2    0.829400  0.166700  0.702900  0.633345
    C   C3    0.019200  0.772800  0.457200  0.732716
    C   C4    0.819100  0.808600  0.687800  0.726468
    C   C5    0.446200  0.005100  0.787600  0.743406
    C   C6    0.899000  0.193600  0.433500  0.661592
    C   C7    0.268000  0.686900  0.808700  0.716935
    C   C8    0.639800  0.485600  0.714600  0.788015
    C   C9    0.682000  0.683800  0.928400  0.690357
    C   C10   0.361700  0.574500  0.079300  0.735569
    C   C11   0.253100  0.323300  0.798700  0.666703
    C   C12   0.550200  0.267400  0.961700  0.721541
    C   C13   0.214500  0.072100  0.582900  0.780333
    C   C14   0.329400  0.833300  0.297100  0.633345
    C   C15   0.519200  0.227200  0.542800  0.732718
    C   C16   0.319100  0.191400  0.312200  0.726469
    C   C17   0.946200  0.994900  0.212400  0.743404
    C   C18   0.399000  0.806400  0.566500  0.661591
    C   C19   0.768000  0.313100  0.191300  0.716933
    C   C20   0.139800  0.514400  0.285400  0.788017
    C   C21   0.182000  0.316200  0.071600  0.690358
    C   C22   0.861700  0.425500  0.920700  0.735565
    C   C23   0.753100  0.676700  0.201300  0.666702
    C   C24   0.050200  0.732600  0.038300  0.721545
    O   O1    0.742300  0.946200  0.500000  -0.761094
    O   O2    0.609400  0.939600  0.381200  -0.667239
    O   O3    0.797200  0.092500  0.644800  -0.679915
    O   O4    0.748600  0.223200  0.751200  -0.623023
    O   O5    0.031900  0.880400  0.465100  -0.740502
    O   O6    0.038500  0.716400  0.386700  -0.649903
    O   O7    0.913000  0.852900  0.651300  -0.655202
    O   O8    0.698800  0.842200  0.683300  -0.760073
    O   O9    0.514600  0.059200  0.731700  -0.753445
    O   O10   0.446600  0.898700  0.793500  -0.697486
    O   O11   0.958600  0.101500  0.447400  -0.708488
    O   O12   0.925900  0.259800  0.371600  -0.654450
    O   O13   0.382900  0.649600  0.812100  -0.751017
    O   O14   0.169500  0.647300  0.846300  -0.664153
    O   O15   0.638900  0.587200  0.702800  -0.691376
    O   O16   0.571200  0.432500  0.772200  -0.792330
    O   O17   0.665900  0.747300  0.865600  -0.658885
    O   O18   0.618400  0.594300  0.944500  -0.719316
    O   O19   0.338700  0.554000  0.997000  -0.722423
    O   O20   0.471400  0.559100  0.117700  -0.707405
    O   O21   0.277700  0.404800  0.857200  -0.746345
    O   O22   0.328700  0.267300  0.756000  -0.598615
    O   O23   0.541600  0.375800  0.968900  -0.740905
    O   O24   0.539900  0.208700  0.893100  -0.630355
    O   O25   0.242300  0.053800  0.500000  -0.761094
    O   O26   0.109400  0.060400  0.618800  -0.667239
    O   O27   0.297200  0.907500  0.355200  -0.679915
    O   O28   0.248600  0.776800  0.248800  -0.623023
    O   O29   0.531900  0.119600  0.534900  -0.740503
    O   O30   0.538500  0.283600  0.613300  -0.649903
    O   O31   0.413000  0.147100  0.348700  -0.655202
    O   O32   0.198800  0.157800  0.316700  -0.760073
    O   O33   0.014600  0.940800  0.268300  -0.753445
    O   O34   0.946600  0.101300  0.206500  -0.697486
    O   O35   0.458600  0.898500  0.552600  -0.708486
    O   O36   0.425900  0.740200  0.628400  -0.654450
    O   O37   0.882900  0.350400  0.187900  -0.751016
    O   O38   0.669500  0.352700  0.153700  -0.664151
    O   O39   0.138900  0.412800  0.297200  -0.691377
    O   O40   0.071200  0.567500  0.227800  -0.792331
    O   O41   0.165900  0.252700  0.134400  -0.658885
    O   O42   0.118400  0.405700  0.055500  -0.719317
    O   O43   0.838700  0.446000  0.003000  -0.722420
    O   O44   0.971400  0.440900  0.882300  -0.707406
    O   O45   0.777700  0.595200  0.142800  -0.746344
    O   O46   0.828700  0.732700  0.244000  -0.598614
    O   O47   0.041600  0.624200  0.031100  -0.740909
    O   O48   0.039900  0.791300  0.106900  -0.630356
