# Generated by REPEAT Assigner based on pymatgen
data_DB12-AQUDEX_clean
_audit_creation_date              2022-05-24
_audit_creation_method            REPEAT_Assigner
_cell_length_a                    28.684100
_cell_length_b                    9.265500
_cell_length_c                    9.300500
_cell_angle_alpha                 90.000000
_cell_angle_beta                  116.369000
_cell_angle_gamma                 90.000000
_cell_volume                      2214.630239
_symmetry_space_group_name_H-M    P1
_symmetry_Int_Tables_number       1
loop_
    _symmetry_equiv_pos_site_id
    _symmetry_equiv_pos_as_xyz
    1  x,y,z
loop_
    _atom_site_type_symbol
    _atom_site_label
    _atom_site_fract_x
    _atom_site_fract_y
    _atom_site_fract_z
    _atom_type_partial_charge
    Cu  Cu1  0.188000  0.829200  0.314000  0.286055
    O   O1   0.128400  0.070300  0.338400  -0.530754
    O   O2   0.137900  0.178000  0.566800  -0.442012
    N   N1   0.220400  0.012500  0.737200  0.052243
    N   N2   0.257100  0.909600  0.793200  -0.356846
    N   N3   0.251300  0.826500  0.670600  0.074612
    N   N4   0.211700  0.874500  0.537900  -0.194978
    N   N5   0.143200  0.660700  0.322900  0.028133
    C   C1   0.149100  0.086900  0.484800  0.484861
    C   C2   0.193300  0.988500  0.581300  0.269611
    C   C3   0.112100  0.720000  0.380800  -0.003255
    C   C4   0.074600  0.645000  0.406900  -0.263300
    C   C5   0.069240  0.498700  0.369900  0.213439
    C   C6   0.100700  0.433900  0.310000  -0.228407
    C   C7   0.137100  0.518700  0.288300  -0.109428
    C   C8   0.029290  0.410000  0.395260  0.022628
    H   H1   0.116170  0.821140  0.405820  0.137302
    H   H2   0.053370  0.692110  0.448510  0.132927
    H   H3   0.097400  0.332920  0.284220  0.204763
    H   H4   0.158780  0.474050  0.246850  0.193656
    H   H5   0.046470  0.350310  0.488500  0.050718
    H   H6   0.005310  0.473250  0.410380  0.000935
    H   H7   0.024170  0.256000  0.231700  0.030199
    Cu  Cu2  0.688000  0.329200  0.314000  0.286053
    O   O3   0.628400  0.570300  0.338400  -0.530761
    O   O4   0.637900  0.678000  0.566800  -0.441993
    N   N6   0.720400  0.512500  0.737200  0.052216
    N   N7   0.757100  0.409600  0.793200  -0.356867
    N   N8   0.751300  0.326500  0.670600  0.074609
    N   N9   0.711700  0.374500  0.537900  -0.194985
    N   N10  0.643200  0.160700  0.322900  0.028206
    C   C9   0.649100  0.586900  0.484800  0.484826
    C   C10  0.693300  0.488500  0.581300  0.269643
    C   C11  0.612100  0.220000  0.380800  -0.003304
    C   C12  0.574600  0.145000  0.406900  -0.263293
    C   C13  0.569240  0.998700  0.369900  0.213477
    C   C14  0.600700  0.933900  0.310000  -0.228382
    C   C15  0.637100  0.018700  0.288300  -0.109527
    C   C16  0.529290  0.910000  0.395260  0.022595
    H   H8   0.616170  0.321140  0.405820  0.137318
    H   H9   0.553370  0.192110  0.448510  0.132909
    H   H10  0.597400  0.832920  0.284220  0.204760
    H   H11  0.658780  0.974050  0.246850  0.193684
    H   H12  0.546470  0.850310  0.488500  0.050741
    H   H13  0.505310  0.973250  0.410380  0.000956
    H   H14  0.524170  0.756000  0.231700  0.030222
    Cu  Cu3  0.812000  0.829200  0.186000  0.285787
    O   O5   0.871600  0.070300  0.161600  -0.530738
    O   O6   0.862100  0.178000  0.933200  -0.441973
    N   N11  0.779600  0.012500  0.762800  0.052423
    N   N12  0.742900  0.909600  0.706800  -0.357014
    N   N13  0.748700  0.826500  0.829400  0.074680
    N   N14  0.788300  0.874500  0.962100  -0.195021
    N   N15  0.856800  0.660700  0.177100  0.028067
    C   C17  0.850900  0.086900  0.015200  0.484817
    C   C18  0.806700  0.988500  0.918700  0.269532
    C   C19  0.887900  0.720000  0.119200  -0.003225
    C   C20  0.925400  0.645000  0.093100  -0.263359
    C   C21  0.930760  0.498700  0.130100  0.213499
    C   C22  0.899300  0.433900  0.190000  -0.228456
    C   C23  0.862900  0.518700  0.211700  -0.109414
    C   C24  0.970710  0.410000  0.104740  0.022653
    H   H15  0.883830  0.821140  0.094180  0.137304
    H   H16  0.946630  0.692110  0.051490  0.132931
    H   H17  0.902600  0.332920  0.215780  0.204770
    H   H18  0.841220  0.474050  0.253150  0.193647
    H   H19  0.953530  0.350310  0.011500  0.050722
    H   H20  0.994690  0.473250  0.089620  0.000925
    H   H21  0.975830  0.256000  0.268300  0.030221
    Cu  Cu4  0.312000  0.329200  0.186000  0.285887
    O   O7   0.371600  0.570300  0.161600  -0.530753
    O   O8   0.362100  0.678000  0.933200  -0.442008
    N   N16  0.279600  0.512500  0.762800  0.052240
    N   N17  0.242900  0.409600  0.706800  -0.356851
    N   N18  0.248700  0.326500  0.829400  0.074614
    N   N19  0.288300  0.374500  0.962100  -0.195000
    N   N20  0.356800  0.160700  0.177100  0.028092
    C   C25  0.350900  0.586900  0.015200  0.484865
    C   C26  0.306700  0.488500  0.918700  0.269608
    C   C27  0.387900  0.220000  0.119200  -0.003230
    C   C28  0.425400  0.145000  0.093100  -0.263321
    C   C29  0.430760  0.998700  0.130100  0.213423
    C   C30  0.399300  0.933900  0.190000  -0.228418
    C   C31  0.362900  0.018700  0.211700  -0.109416
    C   C32  0.470710  0.910000  0.104740  0.022698
    H   H22  0.383830  0.321140  0.094180  0.137297
    H   H23  0.446630  0.192110  0.051490  0.132939
    H   H24  0.402600  0.832920  0.215780  0.204762
    H   H25  0.341220  0.974050  0.253150  0.193656
    H   H26  0.453530  0.850310  0.011500  0.050709
    H   H27  0.494690  0.973250  0.089620  0.000908
    H   H28  0.475830  0.756000  0.268300  0.030223
    Cu  Cu5  0.812000  0.170800  0.686000  0.285913
    O   O9   0.871600  0.929700  0.661600  -0.530757
    O   O10  0.862100  0.822000  0.433200  -0.442014
    N   N21  0.779600  0.987500  0.262800  0.052271
    N   N22  0.742900  0.090400  0.206800  -0.356862
    N   N23  0.748700  0.173500  0.329400  0.074565
    N   N24  0.788300  0.125500  0.462100  -0.194908
    N   N25  0.856800  0.339300  0.677100  0.028173
    C   C33  0.850900  0.913100  0.515200  0.484832
    C   C34  0.806700  0.011500  0.418700  0.269559
    C   C35  0.887900  0.280000  0.619200  -0.003277
    C   C36  0.925400  0.355000  0.593100  -0.263314
    C   C37  0.930760  0.501300  0.630100  0.213467
    C   C38  0.899300  0.566100  0.690000  -0.228418
    C   C39  0.862900  0.481300  0.711700  -0.109482
    C   C40  0.970710  0.590000  0.604740  0.022642
    H   H29  0.883830  0.178860  0.594180  0.137304
    H   H30  0.946630  0.307890  0.551490  0.132927
    H   H31  0.902600  0.667080  0.715780  0.204771
    H   H32  0.841220  0.525950  0.753150  0.193670
    H   H33  0.953530  0.649690  0.511500  0.050729
    H   H34  0.994690  0.526750  0.589620  0.000928
    H   H35  0.975830  0.744000  0.768300  0.030220
    Cu  Cu6  0.312000  0.670800  0.686000  0.285892
    O   O11  0.371600  0.429700  0.661600  -0.530752
    O   O12  0.362100  0.322000  0.433200  -0.442004
    N   N26  0.279600  0.487500  0.262800  0.052239
    N   N27  0.242900  0.590400  0.206800  -0.356852
    N   N28  0.248700  0.673500  0.329400  0.074619
    N   N29  0.288300  0.625500  0.462100  -0.194998
    N   N30  0.356800  0.839300  0.677100  0.028103
    C   C41  0.350900  0.413100  0.515200  0.484858
    C   C42  0.306700  0.511500  0.418700  0.269610
    C   C43  0.387900  0.780000  0.619200  -0.003233
    C   C44  0.425400  0.855000  0.593100  -0.263320
    C   C45  0.430760  0.001300  0.630100  0.213428
    C   C46  0.399300  0.066100  0.690000  -0.228401
    C   C47  0.362900  0.981300  0.711700  -0.109435
    C   C48  0.470710  0.090000  0.604740  0.022658
    H   H36  0.383830  0.678860  0.594180  0.137300
    H   H37  0.446630  0.807890  0.551490  0.132931
    H   H38  0.402600  0.167080  0.715780  0.204760
    H   H39  0.341220  0.025950  0.753150  0.193659
    H   H40  0.453530  0.149690  0.511500  0.050718
    H   H41  0.494690  0.026750  0.589620  0.000937
    H   H42  0.475830  0.244000  0.768300  0.030238
    Cu  Cu7  0.188000  0.170800  0.814000  0.285951
    O   O13  0.128400  0.929700  0.838400  -0.530751
    O   O14  0.137900  0.822000  0.066800  -0.441991
    N   N31  0.220400  0.987500  0.237200  0.052262
    N   N32  0.257100  0.090400  0.293200  -0.356847
    N   N33  0.251300  0.173500  0.170600  0.074611
    N   N34  0.211700  0.125500  0.037900  -0.194991
    N   N35  0.143200  0.339300  0.822900  0.028105
    C   C49  0.149100  0.913100  0.984800  0.484865
    C   C50  0.193300  0.011500  0.081300  0.269607
    C   C51  0.112100  0.280000  0.880800  -0.003243
    C   C52  0.074600  0.355000  0.906900  -0.263313
    C   C53  0.069240  0.501300  0.869900  0.213443
    C   C54  0.100700  0.566100  0.810000  -0.228409
    C   C55  0.137100  0.481300  0.788300  -0.109426
    C   C56  0.029290  0.590000  0.895260  0.022629
    H   H43  0.116170  0.178860  0.905820  0.137298
    H   H44  0.053370  0.307890  0.948510  0.132931
    H   H45  0.097400  0.667080  0.784220  0.204766
    H   H46  0.158780  0.525950  0.746850  0.193654
    H   H47  0.046470  0.649690  0.988500  0.050718
    H   H48  0.005310  0.526750  0.910380  0.000935
    H   H49  0.024170  0.744000  0.731700  0.030199
    Cu  Cu8  0.688000  0.670800  0.814000  0.285811
    O   O15  0.628400  0.429700  0.838400  -0.530780
    O   O16  0.637900  0.322000  0.066800  -0.441978
    N   N36  0.720400  0.487500  0.237200  0.052234
    N   N37  0.757100  0.590400  0.293200  -0.356850
    N   N38  0.751300  0.673500  0.170600  0.074609
    N   N39  0.711700  0.625500  0.037900  -0.195034
    N   N40  0.643200  0.839300  0.822900  0.028093
    C   C57  0.649100  0.413100  0.984800  0.484819
    C   C58  0.693300  0.511500  0.081300  0.269665
    C   C59  0.612100  0.780000  0.880800  -0.003269
    C   C60  0.574600  0.855000  0.906900  -0.263343
    C   C61  0.569240  0.001300  0.869900  0.213556
    C   C62  0.600700  0.066100  0.810000  -0.228571
    C   C63  0.637100  0.981300  0.788300  -0.109429
    C   C64  0.529290  0.090000  0.895260  0.022588
    H   H50  0.616170  0.678860  0.905820  0.137330
    H   H51  0.553370  0.807890  0.948510  0.132932
    H   H52  0.597400  0.167080  0.784220  0.204866
    H   H53  0.658780  0.025950  0.746850  0.193664
    H   H54  0.546470  0.149690  0.988500  0.050744
    H   H55  0.505310  0.026750  0.910380  0.000955
    H   H56  0.524170  0.244000  0.731700  0.030265
    C   C65  0.000000  0.315900  0.250000  -0.105884
    C   C66  0.500000  0.815900  0.250000  -0.105926
    C   C67  0.000000  0.684100  0.750000  -0.105881
    C   C68  0.500000  0.184100  0.750000  -0.105994
