# Generated by REPEAT Assigner based on pymatgen
data_DB12-KEDJAG06_freeONLY
_audit_creation_date              2022-05-24
_audit_creation_method            REPEAT_Assigner
_cell_length_a                    8.692600
_cell_length_b                    34.156400
_cell_length_c                    8.595600
_cell_angle_alpha                 90.000000
_cell_angle_beta                  107.603000
_cell_angle_gamma                 90.000000
_cell_volume                      2432.599153
_symmetry_space_group_name_H-M    P1
_symmetry_Int_Tables_number       1
loop_
    _symmetry_equiv_pos_site_id
    _symmetry_equiv_pos_as_xyz
    1  x,y,z
loop_
    _atom_site_type_symbol
    _atom_site_label
    _atom_site_fract_x
    _atom_site_fract_y
    _atom_site_fract_z
    _atom_type_partial_charge
    Cu  Cu1  0.748410  0.203440  0.478990  0.788616
    Cu  Cu2  0.737670  0.045530  0.498290  0.771054
    O   O1   0.895980  0.153530  0.609620  -0.393701
    O   O2   0.847430  0.090040  0.628370  -0.373965
    O   O3   0.620620  0.160020  0.357090  -0.389476
    O   O4   0.611340  0.095080  0.336190  -0.394789
    O   O5   0.623250  0.205760  0.639850  -0.403241
    O   O6   0.585530  0.248130  0.821800  -0.365115
    O   O7   0.873580  0.246330  0.613160  -0.343109
    O   O8   0.857480  0.287560  0.807970  -0.377240
    O   O9   0.905510  0.040940  0.385510  -0.388364
    O   O10  0.088210  0.000210  0.342070  -0.359411
    O   O11  0.569450  0.042370  0.612340  -0.382480
    O   O12  0.377930  0.000190  0.627800  -0.351608
    C   C1   0.817700  0.123170  0.561500  0.499426
    C   C2   0.669300  0.125920  0.404000  0.535403
    C   C3   0.810200  0.258630  0.717200  0.470834
    C   C4   0.659100  0.236040  0.729900  0.493491
    C   C5   0.999800  0.011420  0.421300  0.483727
    C   C6   0.484700  0.012310  0.569000  0.479992
    Cu  Cu3  0.251590  0.703440  0.021010  0.788637
    Cu  Cu4  0.262330  0.545530  0.001710  0.771051
    O   O13  0.104020  0.653530  0.890380  -0.393712
    O   O14  0.152570  0.590040  0.871630  -0.373992
    O   O15  0.379380  0.660020  0.142910  -0.389480
    O   O16  0.388660  0.595080  0.163810  -0.394793
    O   O17  0.376750  0.705760  0.860150  -0.403247
    O   O18  0.414470  0.748130  0.678200  -0.365126
    O   O19  0.126420  0.746330  0.886840  -0.343106
    O   O20  0.142520  0.787560  0.692030  -0.377237
    O   O21  0.094490  0.540940  0.114490  -0.388392
    O   O22  0.911790  0.500210  0.157930  -0.359420
    O   O23  0.430550  0.542370  0.887660  -0.382482
    O   O24  0.622070  0.500190  0.872200  -0.351618
    C   C7   0.182300  0.623170  0.938500  0.499433
    C   C8   0.330700  0.625920  0.096000  0.535411
    C   C9   0.189800  0.758630  0.782800  0.470824
    C   C10  0.340900  0.736040  0.770100  0.493496
    C   C11  0.000200  0.511420  0.078700  0.483735
    C   C12  0.515300  0.512310  0.931000  0.479996
    Cu  Cu5  0.251590  0.796560  0.521010  0.788606
    Cu  Cu6  0.262330  0.954470  0.501710  0.771022
    O   O25  0.104020  0.846470  0.390380  -0.393698
    O   O26  0.152570  0.909960  0.371630  -0.373952
    O   O27  0.379380  0.839980  0.642910  -0.389482
    O   O28  0.388660  0.904920  0.663810  -0.394811
    O   O29  0.376750  0.794240  0.360150  -0.403236
    O   O30  0.414470  0.751870  0.178200  -0.365120
    O   O31  0.126420  0.753670  0.386840  -0.343104
    O   O32  0.142520  0.712440  0.192030  -0.377241
    O   O33  0.094490  0.959060  0.614490  -0.388351
    O   O34  0.911790  0.999790  0.657930  -0.359413
    O   O35  0.430550  0.957630  0.387660  -0.382475
    O   O36  0.622070  0.999810  0.372200  -0.351616
    C   C13  0.182300  0.876830  0.438500  0.499401
    C   C14  0.330700  0.874080  0.596000  0.535440
    C   C15  0.189800  0.741370  0.282800  0.470833
    C   C16  0.340900  0.763960  0.270100  0.493489
    C   C17  0.000200  0.988580  0.578700  0.483718
    C   C18  0.515300  0.987690  0.431000  0.480001
    Cu  Cu7  0.748410  0.296560  0.978990  0.788627
    Cu  Cu8  0.737670  0.454470  0.998290  0.771024
    O   O37  0.895980  0.346470  0.109620  -0.393702
    O   O38  0.847430  0.409960  0.128370  -0.373973
    O   O39  0.620620  0.339980  0.857090  -0.389489
    O   O40  0.611340  0.404920  0.836190  -0.394812
    O   O41  0.623250  0.294240  0.139850  -0.403241
    O   O42  0.585530  0.251870  0.321800  -0.365125
    O   O43  0.873580  0.253670  0.113160  -0.343107
    O   O44  0.857480  0.212440  0.307970  -0.377239
    O   O45  0.905510  0.459060  0.885510  -0.388375
    O   O46  0.088210  0.499790  0.842070  -0.359417
    O   O47  0.569450  0.457630  0.112340  -0.382478
    O   O48  0.377930  0.499810  0.127800  -0.351631
    C   C19  0.817700  0.376830  0.061500  0.499401
    C   C20  0.669300  0.374080  0.904000  0.535456
    C   C21  0.810200  0.241370  0.217200  0.470829
    C   C22  0.659100  0.263960  0.229900  0.493488
    C   C23  0.999800  0.488580  0.921300  0.483715
    C   C24  0.484700  0.487690  0.069000  0.480012
