# generated using pymatgen
data_CuH18C26(N2O3)2
_symmetry_space_group_name_H-M   'P 1'
_cell_length_a   8.32590000
_cell_length_b   22.77300000
_cell_length_c   20.10500000
_cell_angle_alpha   90.00000000
_cell_angle_beta   93.70000000
_cell_angle_gamma   90.00000000
_symmetry_Int_Tables_number   1
_chemical_formula_structural   CuH18C26(N2O3)2
_chemical_formula_sum   'Cu4 H72 C104 N16 O24'
_cell_volume   3804.07730356
_cell_formula_units_Z   4
loop_
 _symmetry_equiv_pos_site_id
 _symmetry_equiv_pos_as_xyz
  1  'x, y, z'
loop_
 _atom_site_type_symbol
 _atom_site_label
 _atom_site_symmetry_multiplicity
 _atom_site_fract_x
 _atom_site_fract_y
 _atom_site_fract_z
 _atom_site_occupancy
  Cu  Cu1  1  0.71295000  0.55428000  0.49448000  1
  Cu  Cu2  1  0.78705000  0.05428000  0.00552000  1
  Cu  Cu3  1  0.28705000  0.44572000  0.50552000  1
  Cu  Cu4  1  0.21295000  0.94572000  0.99448000  1
  H  H1  1  0.54420000  0.35760000  0.61450000  1
  H  H2  1  0.68070000  0.77600000  0.28310000  1
  H  H3  1  0.05990000  0.83120000  0.39320000  1
  H  H4  1  0.06090000  0.74430000  0.45250000  1
  H  H5  1  0.62510000  0.87170000  0.12190000  1
  H  H6  1  0.61370000  0.94120000  0.03750000  1
  H  H7  1  0.91180000  0.04450000  0.14520000  1
  H  H8  1  0.93350000  0.97760000  0.23110000  1
  H  H9  1  0.77000000  0.22100000  0.74020000  1
  H  H10  1  0.73050000  0.84000000  0.22290000  1
  H  H11  1  0.95580000  0.85760000  0.88550000  1
  H  H12  1  0.61930000  0.29440000  0.70290000  1
  H  H13  1  0.88070000  0.79440000  0.79710000  1
  H  H14  1  0.45040000  0.87500000  0.77280000  1
  H  H15  1  0.52670000  0.94030000  0.86040000  1
  H  H16  1  0.49210000  0.65150000  0.53150000  1
  H  H17  1  0.47880000  0.72370000  0.61100000  1
  H  H18  1  0.83580000  0.63800000  0.71930000  1
  H  H19  1  0.84000000  0.56970000  0.63560000  1
  H  H20  1  0.83970000  0.19800000  0.14680000  1
  H  H21  1  0.81930000  0.27600000  0.21690000  1
  H  H22  1  0.44010000  0.33120000  0.10680000  1
  H  H23  1  0.04960000  0.37500000  0.72720000  1
  H  H24  1  0.43910000  0.24430000  0.04750000  1
  H  H25  1  0.87490000  0.37170000  0.37810000  1
  H  H26  1  0.88630000  0.44120000  0.46250000  1
  H  H27  1  0.58820000  0.54450000  0.35480000  1
  H  H28  1  0.56650000  0.47760000  0.26890000  1
  H  H29  1  0.73000000  0.72100000  0.75980000  1
  H  H30  1  0.76950000  0.34000000  0.27710000  1
  H  H31  1  0.45580000  0.64240000  0.38550000  1
  H  H32  1  0.38070000  0.70560000  0.29710000  1
  H  H33  1  0.95040000  0.62500000  0.27280000  1
  H  H34  1  0.97330000  0.44030000  0.63960000  1
  H  H35  1  0.02670000  0.55970000  0.36040000  1
  H  H36  1  0.99210000  0.84850000  0.03150000  1
  H  H37  1  0.97880000  0.77630000  0.11100000  1
  H  H38  1  0.33580000  0.86200000  0.21930000  1
  H  H39  1  0.34000000  0.93030000  0.13560000  1
  H  H40  1  0.33970000  0.30200000  0.64680000  1
  H  H41  1  0.31930000  0.22400000  0.71690000  1
  H  H42  1  0.94010000  0.16880000  0.60680000  1
  H  H43  1  0.93910000  0.25570000  0.54750000  1
  H  H44  1  0.37490000  0.12830000  0.87810000  1
  H  H45  1  0.00790000  0.15150000  0.96850000  1
  H  H46  1  0.38630000  0.05880000  0.96250000  1
  H  H47  1  0.08820000  0.95550000  0.85480000  1
  H  H48  1  0.06650000  0.02240000  0.76890000  1
  H  H49  1  0.23000000  0.77900000  0.25980000  1
  H  H50  1  0.26950000  0.16000000  0.77710000  1
  H  H51  1  0.04420000  0.14240000  0.11450000  1
  H  H52  1  0.11930000  0.20560000  0.20290000  1
  H  H53  1  0.54960000  0.12500000  0.22720000  1
  H  H54  1  0.47330000  0.05970000  0.13960000  1
  H  H55  1  0.50790000  0.34850000  0.46850000  1
  H  H56  1  0.02120000  0.22370000  0.88900000  1
  H  H57  1  0.52120000  0.27630000  0.38900000  1
  H  H58  1  0.16420000  0.36200000  0.28070000  1
  H  H59  1  0.16000000  0.43030000  0.36440000  1
  H  H60  1  0.16030000  0.80200000  0.85320000  1
  H  H61  1  0.18070000  0.72400000  0.78310000  1
  H  H62  1  0.55990000  0.66880000  0.89320000  1
  H  H63  1  0.56090000  0.75570000  0.95250000  1
  H  H64  1  0.12510000  0.62830000  0.62190000  1
  H  H65  1  0.11370000  0.55880000  0.53750000  1
  H  H66  1  0.41180000  0.45550000  0.64520000  1
  H  H67  1  0.66420000  0.13800000  0.78070000  1
  H  H68  1  0.43350000  0.52240000  0.73110000  1
  H  H69  1  0.27000000  0.27900000  0.24020000  1
  H  H70  1  0.23050000  0.66000000  0.72290000  1
  H  H71  1  0.66000000  0.06970000  0.86440000  1
  H  H72  1  0.66030000  0.69800000  0.35320000  1
  C  C1  1  0.69200000  0.44890000  0.56560000  1
  C  C2  1  0.94400000  0.19310000  0.88330000  1
  C  C3  1  0.28600000  0.58500000  0.68470000  1
  C  C4  1  0.18730000  0.59340000  0.62710000  1
  C  C5  1  0.17860000  0.55150000  0.57730000  1
  C  C6  1  0.35340000  0.49120000  0.64040000  1
  C  C7  1  0.36860000  0.53100000  0.69170000  1
  C  C8  1  0.83740000  0.19080000  0.82620000  1
  C  C9  1  0.73340000  0.14260000  0.81980000  1
  C  C10  1  0.73140000  0.10210000  0.87000000  1
  C  C11  1  0.85190000  0.65670000  0.45240000  1
  C  C12  1  0.85640000  0.71300000  0.41120000  1
  C  C13  1  0.74760000  0.72450000  0.36100000  1
  C  C14  1  0.75560000  0.77240000  0.32060000  1
  C  C15  1  0.86630000  0.81460000  0.33230000  1
  C  C16  1  0.97760000  0.80310000  0.38280000  1
  C  C17  1  0.74870000  0.40620000  0.61990000  1
  C  C18  1  0.97540000  0.75180000  0.42000000  1
  C  C19  1  0.88070000  0.86810000  0.29270000  1
  C  C20  1  0.78600000  0.91500000  0.18470000  1
  C  C21  1  0.68730000  0.90660000  0.12710000  1
  C  C22  1  0.67860000  0.94850000  0.07730000  1
  C  C23  1  0.85340000  0.00880000  0.14040000  1
  C  C24  1  0.86860000  0.96900000  0.19170000  1
  C  C25  1  0.80800000  0.94890000  0.93440000  1
  C  C26  1  0.75130000  0.90620000  0.88010000  1
  C  C27  1  0.85350000  0.86190000  0.86220000  1
  C  C28  1  0.64650000  0.36190000  0.63780000  1
  C  C29  1  0.80770000  0.82360000  0.81030000  1
  C  C30  1  0.65870000  0.82780000  0.77840000  1
  C  C31  1  0.55330000  0.87160000  0.79580000  1
  C  C32  1  0.59930000  0.91080000  0.84770000  1
  C  C33  1  0.60200000  0.78800000  0.72210000  1
  C  C34  1  0.56640000  0.65000000  0.56930000  1
  C  C35  1  0.55600000  0.69310000  0.61670000  1
  C  C36  1  0.66260000  0.69080000  0.67380000  1
  C  C37  1  0.76660000  0.64260000  0.68020000  1
  C  C38  1  0.76860000  0.60210000  0.63000000  1
  C  C39  1  0.69230000  0.32360000  0.68970000  1
  C  C40  1  0.64810000  0.15670000  0.04760000  1
  C  C41  1  0.64360000  0.21300000  0.08880000  1
  C  C42  1  0.75240000  0.22450000  0.13900000  1
  C  C43  1  0.74440000  0.27240000  0.17940000  1
  C  C44  1  0.63370000  0.31460000  0.16770000  1
  C  C45  1  0.52240000  0.30310000  0.11720000  1
  C  C46  1  0.52460000  0.25180000  0.08000000  1
  C  C47  1  0.61930000  0.36810000  0.20730000  1
  C  C48  1  0.71400000  0.41500000  0.31530000  1
  C  C49  1  0.81270000  0.40660000  0.37290000  1
  C  C50  1  0.84130000  0.32780000  0.72160000  1
  C  C51  1  0.82140000  0.44850000  0.42270000  1
  C  C52  1  0.64660000  0.50880000  0.35960000  1
  C  C53  1  0.63140000  0.46900000  0.30830000  1
  C  C54  1  0.30800000  0.55110000  0.43440000  1
  C  C55  1  0.25130000  0.59380000  0.38010000  1
  C  C56  1  0.35350000  0.63810000  0.36220000  1
  C  C57  1  0.30770000  0.67640000  0.31030000  1
  C  C58  1  0.15870000  0.67220000  0.27840000  1
  C  C59  1  0.05330000  0.62840000  0.29580000  1
  C  C60  1  0.09930000  0.58920000  0.34770000  1
  C  C61  1  0.94670000  0.37160000  0.70420000  1
  C  C62  1  0.10200000  0.71200000  0.22210000  1
  C  C63  1  0.06640000  0.85000000  0.06930000  1
  C  C64  1  0.05600000  0.80690000  0.11670000  1
  C  C65  1  0.16260000  0.80920000  0.17380000  1
  C  C66  1  0.26660000  0.85740000  0.18020000  1
  C  C67  1  0.26860000  0.89790000  0.13000000  1
  C  C68  1  0.14810000  0.34330000  0.54760000  1
  C  C69  1  0.14360000  0.28700000  0.58880000  1
  C  C70  1  0.25240000  0.27550000  0.63900000  1
  C  C71  1  0.24440000  0.22760000  0.67940000  1
  C  C72  1  0.90070000  0.41080000  0.65230000  1
  C  C73  1  0.13370000  0.18540000  0.66770000  1
  C  C74  1  0.02240000  0.19690000  0.61720000  1
  C  C75  1  0.02460000  0.24820000  0.58000000  1
  C  C76  1  0.11930000  0.13190000  0.70730000  1
  C  C77  1  0.21400000  0.08500000  0.81530000  1
  C  C78  1  0.31270000  0.09340000  0.87290000  1
  C  C79  1  0.32140000  0.05150000  0.92270000  1
  C  C80  1  0.14660000  0.99120000  0.85960000  1
  C  C81  1  0.13140000  0.03100000  0.80830000  1
  C  C82  1  0.19200000  0.05110000  0.06560000  1
  C  C83  1  0.89800000  0.28800000  0.77790000  1
  C  C84  1  0.24870000  0.09380000  0.11990000  1
  C  C85  1  0.14650000  0.13810000  0.13780000  1
  C  C86  1  0.19230000  0.17640000  0.18970000  1
  C  C87  1  0.34130000  0.17220000  0.22160000  1
  C  C88  1  0.44670000  0.12840000  0.20420000  1
  C  C89  1  0.40070000  0.08920000  0.15230000  1
  C  C90  1  0.39800000  0.21200000  0.27790000  1
  C  C91  1  0.43360000  0.35000000  0.43070000  1
  C  C92  1  0.44400000  0.30690000  0.38330000  1
  C  C93  1  0.33740000  0.30920000  0.32620000  1
  C  C94  1  0.93360000  0.15000000  0.93070000  1
  C  C95  1  0.23340000  0.35740000  0.31980000  1
  C  C96  1  0.23140000  0.39790000  0.37000000  1
  C  C97  1  0.35190000  0.84330000  0.95240000  1
  C  C98  1  0.35640000  0.78700000  0.91120000  1
  C  C99  1  0.24760000  0.77550000  0.86100000  1
  C  C100  1  0.25560000  0.72760000  0.82060000  1
  C  C101  1  0.36630000  0.68540000  0.83230000  1
  C  C102  1  0.47760000  0.69690000  0.88280000  1
  C  C103  1  0.47540000  0.74820000  0.92000000  1
  C  C104  1  0.38070000  0.63190000  0.79270000  1
  N  N1  1  0.82620000  0.10580000  0.92740000  1
  N  N2  1  0.17160000  0.76670000  0.22420000  1
  N  N3  1  0.23860000  0.99962000  0.91610000  1
  N  N4  1  0.20740000  0.12950000  0.76770000  1
  N  N5  1  0.32620000  0.39420000  0.42740000  1
  N  N6  1  0.32840000  0.26670000  0.27580000  1
  N  N7  1  0.26140000  0.49962000  0.58390000  1
  N  N8  1  0.29260000  0.62950000  0.73230000  1
  N  N9  1  0.82840000  0.23330000  0.77580000  1
  N  N10  1  0.76140000  0.00038000  0.08390000  1
  N  N11  1  0.79260000  0.87050000  0.23230000  1
  N  N12  1  0.67380000  0.60580000  0.57260000  1
  N  N13  1  0.67160000  0.73330000  0.72420000  1
  N  N14  1  0.73860000  0.50038000  0.41610000  1
  N  N15  1  0.70740000  0.37050000  0.26770000  1
  N  N16  1  0.17380000  0.89420000  0.07260000  1
  O  O1  1  0.78440000  0.49285000  0.55803000  1
  O  O2  1  0.54190000  0.14730000  0.00420000  1
  O  O3  1  0.53550000  0.40960000  0.18730000  1
  O  O4  1  0.50510000  0.80320000  0.67820000  1
  O  O5  1  0.21560000  0.50715000  0.44197000  1
  O  O6  1  0.43580000  0.56078000  0.46709000  1
  O  O7  1  0.26860000  0.37651000  0.56305000  1
  O  O8  1  0.04190000  0.35270000  0.50420000  1
  O  O9  1  0.03550000  0.09040000  0.68730000  1
  O  O10  1  0.00510000  0.69680000  0.17820000  1
  O  O11  1  0.28440000  0.00715000  0.05803000  1
  O  O12  1  0.56420000  0.43922000  0.53291000  1
  O  O13  1  0.06420000  0.06078000  0.03291000  1
  O  O14  1  0.23140000  0.87651000  0.93695000  1
  O  O15  1  0.45810000  0.85270000  0.99580000  1
  O  O16  1  0.46450000  0.59040000  0.81270000  1
  O  O17  1  0.49490000  0.19680000  0.32180000  1
  O  O18  1  0.73140000  0.62349000  0.43695000  1
  O  O19  1  0.95810000  0.64730000  0.49580000  1
  O  O20  1  0.96450000  0.90960000  0.31270000  1
  O  O21  1  0.99490000  0.30320000  0.82180000  1
  O  O22  1  0.71560000  0.99285000  0.94197000  1
  O  O23  1  0.93580000  0.93922000  0.96709000  1
  O  O24  1  0.76860000  0.12349000  0.06305000  1
