# generated using pymatgen
data_CuH2(C3O2)2
_symmetry_space_group_name_H-M   'P 1'
_cell_length_a   18.58960000
_cell_length_b   18.58960000
_cell_length_c   18.58960000
_cell_angle_alpha   60.00000000
_cell_angle_beta   60.00000000
_cell_angle_gamma   60.00000000
_symmetry_Int_Tables_number   1
_chemical_formula_structural   CuH2(C3O2)2
_chemical_formula_sum   'Cu12 H24 C72 O48'
_cell_volume   4542.50210373
_cell_formula_units_Z   12
loop_
 _symmetry_equiv_pos_site_id
 _symmetry_equiv_pos_as_xyz
  1  'x, y, z'
loop_
 _atom_site_type_symbol
 _atom_site_label
 _atom_site_symmetry_multiplicity
 _atom_site_fract_x
 _atom_site_fract_y
 _atom_site_fract_z
 _atom_site_occupancy
  Cu  Cu1  1  0.00000000  0.42998000  0.57002000  1
  Cu  Cu2  1  0.42998000  0.00000000  0.00000000  1
  Cu  Cu3  1  0.57002000  0.00000000  0.00000000  1
  Cu  Cu4  1  0.00000000  0.57002000  0.42998000  1
  Cu  Cu5  1  0.00000000  0.57002000  0.00000000  1
  Cu  Cu6  1  0.42998000  0.00000000  0.57002000  1
  Cu  Cu7  1  0.57002000  0.00000000  0.42998000  1
  Cu  Cu8  1  0.00000000  0.42998000  0.00000000  1
  Cu  Cu9  1  0.00000000  0.00000000  0.42998000  1
  Cu  Cu10  1  0.42998000  0.57002000  0.00000000  1
  Cu  Cu11  1  0.57002000  0.42998000  0.00000000  1
  Cu  Cu12  1  0.00000000  0.00000000  0.57002000  1
  H  H1  1  0.97170000  0.27110000  0.48610000  1
  H  H2  1  0.27110000  0.97170000  0.27110000  1
  H  H3  1  0.48610000  0.27110000  0.97170000  1
  H  H4  1  0.27110000  0.48610000  0.27110000  1
  H  H5  1  0.97170000  0.48610000  0.27110000  1
  H  H6  1  0.27110000  0.27110000  0.48610000  1
  H  H7  1  0.48610000  0.97170000  0.27110000  1
  H  H8  1  0.27110000  0.27110000  0.97170000  1
  H  H9  1  0.97170000  0.27110000  0.27110000  1
  H  H10  1  0.27110000  0.48610000  0.97170000  1
  H  H11  1  0.48610000  0.27110000  0.27110000  1
  H  H12  1  0.27110000  0.97170000  0.48610000  1
  H  H13  1  0.72890000  0.02830000  0.51390000  1
  H  H14  1  0.02830000  0.72890000  0.72890000  1
  H  H15  1  0.72890000  0.51390000  0.02830000  1
  H  H16  1  0.51390000  0.72890000  0.72890000  1
  H  H17  1  0.51390000  0.02830000  0.72890000  1
  H  H18  1  0.72890000  0.72890000  0.51390000  1
  H  H19  1  0.02830000  0.51390000  0.72890000  1
  H  H20  1  0.72890000  0.72890000  0.02830000  1
  H  H21  1  0.72890000  0.02830000  0.72890000  1
  H  H22  1  0.51390000  0.72890000  0.02830000  1
  H  H23  1  0.72890000  0.51390000  0.72890000  1
  H  H24  1  0.02830000  0.72890000  0.51390000  1
  C  C1  1  0.97010000  0.30110000  0.42770000  1
  C  C2  1  0.30110000  0.97010000  0.30110000  1
  C  C3  1  0.42770000  0.30110000  0.97010000  1
  C  C4  1  0.30110000  0.42770000  0.30110000  1
  C  C5  1  0.97010000  0.42770000  0.30110000  1
  C  C6  1  0.30110000  0.30110000  0.42770000  1
  C  C7  1  0.42770000  0.97010000  0.30110000  1
  C  C8  1  0.30110000  0.30110000  0.97010000  1
  C  C9  1  0.97010000  0.30110000  0.30110000  1
  C  C10  1  0.30110000  0.42770000  0.97010000  1
  C  C11  1  0.42770000  0.30110000  0.30110000  1
  C  C12  1  0.30110000  0.97010000  0.42770000  1
  C  C13  1  0.69890000  0.02990000  0.57230000  1
  C  C14  1  0.02990000  0.69890000  0.69890000  1
  C  C15  1  0.69890000  0.57230000  0.02990000  1
  C  C16  1  0.57230000  0.69890000  0.69890000  1
  C  C17  1  0.57230000  0.02990000  0.69890000  1
  C  C18  1  0.69890000  0.69890000  0.57230000  1
  C  C19  1  0.02990000  0.57230000  0.69890000  1
  C  C20  1  0.69890000  0.69890000  0.02990000  1
  C  C21  1  0.69890000  0.02990000  0.69890000  1
  C  C22  1  0.57230000  0.69890000  0.02990000  1
  C  C23  1  0.69890000  0.57230000  0.69890000  1
  C  C24  1  0.02990000  0.69890000  0.57230000  1
  C  C25  1  0.96930000  0.38690000  0.38690000  1
  C  C26  1  0.97740000  0.43020000  0.43020000  1
  C  C27  1  0.38690000  0.96930000  0.25690000  1
  C  C28  1  0.43020000  0.97740000  0.16220000  1
  C  C29  1  0.38690000  0.25690000  0.96930000  1
  C  C30  1  0.43020000  0.16220000  0.97740000  1
  C  C31  1  0.25690000  0.38690000  0.38690000  1
  C  C32  1  0.16220000  0.43020000  0.43020000  1
  C  C33  1  0.96930000  0.38690000  0.25690000  1
  C  C34  1  0.97740000  0.43020000  0.16220000  1
  C  C35  1  0.38690000  0.25690000  0.38690000  1
  C  C36  1  0.43020000  0.16220000  0.43020000  1
  C  C37  1  0.38690000  0.96930000  0.38690000  1
  C  C38  1  0.43020000  0.97740000  0.43020000  1
  C  C39  1  0.25690000  0.38690000  0.96930000  1
  C  C40  1  0.16220000  0.43020000  0.97740000  1
  C  C41  1  0.96930000  0.25690000  0.38690000  1
  C  C42  1  0.97740000  0.16220000  0.43020000  1
  C  C43  1  0.38690000  0.38690000  0.96930000  1
  C  C44  1  0.43020000  0.43020000  0.97740000  1
  C  C45  1  0.38690000  0.38690000  0.25690000  1
  C  C46  1  0.43020000  0.43020000  0.16220000  1
  C  C47  1  0.25690000  0.96930000  0.38690000  1
  C  C48  1  0.16220000  0.97740000  0.43020000  1
  C  C49  1  0.61310000  0.03070000  0.61310000  1
  C  C50  1  0.56980000  0.02260000  0.56980000  1
  C  C51  1  0.03070000  0.61310000  0.74310000  1
  C  C52  1  0.02260000  0.56980000  0.83780000  1
  C  C53  1  0.74310000  0.61310000  0.03070000  1
  C  C54  1  0.83780000  0.56980000  0.02260000  1
  C  C55  1  0.61310000  0.74310000  0.61310000  1
  C  C56  1  0.56980000  0.83780000  0.56980000  1
  C  C57  1  0.61310000  0.03070000  0.74310000  1
  C  C58  1  0.56980000  0.02260000  0.83780000  1
  C  C59  1  0.74310000  0.61310000  0.61310000  1
  C  C60  1  0.83780000  0.56980000  0.56980000  1
  C  C61  1  0.03070000  0.61310000  0.61310000  1
  C  C62  1  0.02260000  0.56980000  0.56980000  1
  C  C63  1  0.61310000  0.74310000  0.03070000  1
  C  C64  1  0.56980000  0.83780000  0.02260000  1
  C  C65  1  0.74310000  0.03070000  0.61310000  1
  C  C66  1  0.83780000  0.02260000  0.56980000  1
  C  C67  1  0.61310000  0.61310000  0.03070000  1
  C  C68  1  0.56980000  0.56980000  0.02260000  1
  C  C69  1  0.61310000  0.61310000  0.74310000  1
  C  C70  1  0.56980000  0.56980000  0.83780000  1
  C  C71  1  0.03070000  0.74310000  0.61310000  1
  C  C72  1  0.02260000  0.83780000  0.56980000  1
  O  O1  1  0.97993000  0.38711000  0.50695000  1
  O  O2  1  0.38711000  0.97993000  0.12601000  1
  O  O3  1  0.50695000  0.12601000  0.97993000  1
  O  O4  1  0.12601000  0.50695000  0.38711000  1
  O  O5  1  0.97993000  0.50695000  0.12601000  1
  O  O6  1  0.38711000  0.12601000  0.50695000  1
  O  O7  1  0.50695000  0.97993000  0.38711000  1
  O  O8  1  0.12601000  0.38711000  0.97993000  1
  O  O9  1  0.97993000  0.12601000  0.38711000  1
  O  O10  1  0.38711000  0.50695000  0.97993000  1
  O  O11  1  0.50695000  0.38711000  0.12601000  1
  O  O12  1  0.12601000  0.97993000  0.50695000  1
  O  O13  1  0.61289000  0.02007000  0.49305000  1
  O  O14  1  0.02007000  0.61289000  0.87399000  1
  O  O15  1  0.87399000  0.49305000  0.02007000  1
  O  O16  1  0.49305000  0.87399000  0.61289000  1
  O  O17  1  0.49305000  0.02007000  0.87399000  1
  O  O18  1  0.87399000  0.61289000  0.49305000  1
  O  O19  1  0.02007000  0.49305000  0.61289000  1
  O  O20  1  0.61289000  0.87399000  0.02007000  1
  O  O21  1  0.87399000  0.02007000  0.61289000  1
  O  O22  1  0.49305000  0.61289000  0.02007000  1
  O  O23  1  0.61289000  0.49305000  0.87399000  1
  O  O24  1  0.02007000  0.87399000  0.49305000  1
  O  O25  1  0.02007000  0.61289000  0.49305000  1
  O  O26  1  0.61289000  0.02007000  0.87399000  1
  O  O27  1  0.49305000  0.87399000  0.02007000  1
  O  O28  1  0.87399000  0.49305000  0.61289000  1
  O  O29  1  0.02007000  0.49305000  0.87399000  1
  O  O30  1  0.61289000  0.87399000  0.49305000  1
  O  O31  1  0.49305000  0.02007000  0.61289000  1
  O  O32  1  0.87399000  0.61289000  0.02007000  1
  O  O33  1  0.02007000  0.87399000  0.61289000  1
  O  O34  1  0.61289000  0.49305000  0.02007000  1
  O  O35  1  0.49305000  0.61289000  0.87399000  1
  O  O36  1  0.87399000  0.02007000  0.49305000  1
  O  O37  1  0.38711000  0.97993000  0.50695000  1
  O  O38  1  0.97993000  0.38711000  0.12601000  1
  O  O39  1  0.12601000  0.50695000  0.97993000  1
  O  O40  1  0.50695000  0.12601000  0.38711000  1
  O  O41  1  0.50695000  0.97993000  0.12601000  1
  O  O42  1  0.12601000  0.38711000  0.50695000  1
  O  O43  1  0.97993000  0.50695000  0.38711000  1
  O  O44  1  0.38711000  0.12601000  0.97993000  1
  O  O45  1  0.12601000  0.97993000  0.38711000  1
  O  O46  1  0.50695000  0.38711000  0.97993000  1
  O  O47  1  0.38711000  0.50695000  0.12601000  1
  O  O48  1  0.97993000  0.12601000  0.50695000  1
