# Generated by REPEAT Assigner based on pymatgen
data_DB12-PEPLAY_freeONLY
_audit_creation_date              2022-05-24
_audit_creation_method            REPEAT_Assigner
_cell_length_a                    6.809400
_cell_length_b                    12.422000
_cell_length_c                    17.173300
_cell_angle_alpha                 90.000000
_cell_angle_beta                  90.000000
_cell_angle_gamma                 90.000000
_cell_volume                      1452.627053
_symmetry_space_group_name_H-M    P1
_symmetry_Int_Tables_number       1
loop_
    _symmetry_equiv_pos_site_id
    _symmetry_equiv_pos_as_xyz
    1  x,y,z
loop_
    _atom_site_type_symbol
    _atom_site_label
    _atom_site_fract_x
    _atom_site_fract_y
    _atom_site_fract_z
    _atom_type_partial_charge
    V  V1   0.060550  0.265670  0.000840  1.522328
    O  O1   0.278300  0.316850  0.004920  -0.567026
    O  O2   0.112200  0.171100  0.910630  -0.530436
    O  O3   0.111900  0.148300  0.075710  -0.508656
    O  O4   0.939400  0.344600  0.089290  -0.578776
    O  O5   0.939400  0.367200  0.924760  -0.576276
    C  C1   0.273500  0.138600  0.882220  0.625251
    C  C2   0.261700  0.076400  0.808460  -0.021363
    C  C3   0.080100  0.052200  0.776100  -0.115521
    H  H1   0.965400  0.075800  0.800000  0.124392
    C  C4   0.070900  0.992600  0.707900  -0.125882
    H  H2   0.949400  0.976400  0.686200  0.142654
    C  C5   0.432700  0.040300  0.772500  -0.146526
    H  H3   0.554600  0.055700  0.794200  0.151313
    C  C6   0.420300  0.981500  0.704500  -0.102462
    H  H4   0.534400  0.957900  0.680100  0.117128
    C  C7   0.270700  0.113000  0.101930  0.616921
    C  C8   0.238800  0.957400  0.672370  -0.027223
    V  V2   0.439450  0.734330  0.500840  1.522541
    O  O6   0.221700  0.683150  0.504920  -0.567048
    O  O7   0.387800  0.828900  0.410630  -0.530428
    O  O8   0.388100  0.851700  0.575710  -0.508656
    O  O9   0.560600  0.655400  0.589290  -0.578777
    O  O10  0.560600  0.632800  0.424760  -0.576280
    C  C9   0.226500  0.861400  0.382220  0.625242
    C  C10  0.238300  0.923600  0.308460  -0.021357
    C  C11  0.419900  0.947800  0.276100  -0.115526
    H  H5   0.534600  0.924200  0.300000  0.124393
    C  C12  0.429100  0.007400  0.207900  -0.125878
    H  H6   0.550600  0.023600  0.186200  0.142652
    C  C13  0.067300  0.959700  0.272500  -0.146529
    H  H7   0.945400  0.944300  0.294200  0.151315
    C  C14  0.079700  0.018500  0.204500  -0.102458
    H  H8   0.965600  0.042100  0.180100  0.117125
    C  C15  0.229300  0.887000  0.601930  0.616917
    C  C16  0.261200  0.042600  0.172370  -0.027227
    V  V3   0.939450  0.765670  0.499160  1.522467
    O  O11  0.721700  0.816850  0.495080  -0.567042
    O  O12  0.887800  0.671100  0.589370  -0.530422
    O  O13  0.888100  0.648300  0.424290  -0.508653
    O  O14  0.060600  0.844600  0.410710  -0.578771
    O  O15  0.060600  0.867200  0.575240  -0.576273
    C  C17  0.726500  0.638600  0.617780  0.625238
    C  C18  0.738300  0.576400  0.691540  -0.021349
    C  C19  0.919900  0.552200  0.723900  -0.115531
    H  H9   0.034600  0.575800  0.700000  0.124393
    C  C20  0.929100  0.492600  0.792100  -0.125867
    H  H10  0.050600  0.476400  0.813800  0.142647
    C  C21  0.567300  0.540300  0.727500  -0.146541
    H  H11  0.445400  0.555700  0.705800  0.151320
    C  C22  0.579700  0.481500  0.795500  -0.102446
    H  H12  0.465600  0.457900  0.819900  0.117123
    C  C23  0.729300  0.613000  0.398070  0.616921
    C  C24  0.761200  0.457400  0.827630  -0.027242
    V  V4   0.560550  0.234330  0.999160  1.522677
    O  O16  0.778300  0.183150  0.995080  -0.567049
    O  O17  0.612200  0.328900  0.089370  -0.530436
    O  O18  0.611900  0.351700  0.924290  -0.508658
    O  O19  0.439400  0.155400  0.910710  -0.578776
    O  O20  0.439400  0.132800  0.075240  -0.576279
    C  C25  0.773500  0.361400  0.117780  0.625253
    C  C26  0.761700  0.423600  0.191540  -0.021365
    C  C27  0.580100  0.447800  0.223900  -0.115522
    H  H13  0.465400  0.424200  0.200000  0.124393
    C  C28  0.570900  0.507400  0.292100  -0.125878
    H  H14  0.449400  0.523600  0.313800  0.142653
    C  C29  0.932700  0.459700  0.227500  -0.146530
    H  H15  0.054600  0.444300  0.205800  0.151315
    C  C30  0.920300  0.518500  0.295500  -0.102453
    H  H16  0.034400  0.542100  0.319900  0.117122
    C  C31  0.770700  0.387000  0.898070  0.616929
    C  C32  0.738800  0.542600  0.327630  -0.027228
