# Generated by REPEAT Assigner based on pymatgen
data_DB12-OWIJEL_freeONLY
_audit_creation_date              2022-05-24
_audit_creation_method            REPEAT_Assigner
_cell_length_a                    15.488900
_cell_length_b                    15.488900
_cell_length_c                    12.308300
_cell_angle_alpha                 90.000000
_cell_angle_beta                  90.000000
_cell_angle_gamma                 90.000000
_cell_volume                      2952.835305
_symmetry_space_group_name_H-M    P1
_symmetry_Int_Tables_number       1
loop_
    _symmetry_equiv_pos_site_id
    _symmetry_equiv_pos_as_xyz
    1  x,y,z
loop_
    _atom_site_type_symbol
    _atom_site_label
    _atom_site_fract_x
    _atom_site_fract_y
    _atom_site_fract_z
    _atom_type_partial_charge
    O   O1   0.611800  0.379700  0.616600  -0.699263
    O   O2   0.592400  0.293400  0.753100  -0.678454
    C   C1   0.584600  0.364200  0.708700  0.832484
    C   C2   0.541330  0.432800  0.767600  -0.074005
    C   C3   0.541330  0.432800  0.882300  -0.146626
    H   H1   0.572100  0.382800  0.924900  0.111948
    O   O3   0.111800  0.879700  0.116600  -0.699250
    O   O4   0.092400  0.793400  0.253100  -0.678457
    C   C4   0.084600  0.864200  0.208700  0.832483
    C   C5   0.041330  0.932800  0.267600  -0.074022
    C   C6   0.041330  0.932800  0.382300  -0.146607
    H   H2   0.072100  0.882800  0.424900  0.111945
    O   O5   0.888200  0.120300  0.116600  -0.699245
    O   O6   0.907600  0.206600  0.253100  -0.678458
    C   C7   0.915400  0.135800  0.208700  0.832488
    C   C8   0.958670  0.067200  0.267600  -0.074024
    C   C9   0.958670  0.067200  0.382300  -0.146604
    H   H3   0.927900  0.117200  0.424900  0.111944
    O   O7   0.388200  0.620300  0.616600  -0.699259
    O   O8   0.407600  0.706600  0.753100  -0.678462
    C   C10  0.415400  0.635800  0.708700  0.832495
    C   C11  0.458670  0.567200  0.767600  -0.074006
    C   C12  0.458670  0.567200  0.882300  -0.146634
    H   H4   0.427900  0.617200  0.924900  0.111959
    O   O9   0.620300  0.111800  0.866600  -0.699189
    O   O10  0.706600  0.092400  0.003100  -0.678318
    C   C13  0.635800  0.084600  0.958700  0.832160
    C   C14  0.567200  0.041330  0.017600  -0.073944
    C   C15  0.567200  0.041330  0.132300  -0.147049
    H   H5   0.617200  0.072100  0.174900  0.112147
    O   O11  0.120300  0.611800  0.366600  -0.699190
    O   O12  0.206600  0.592400  0.503100  -0.678319
    C   C16  0.135800  0.584600  0.458700  0.832134
    C   C17  0.067200  0.541330  0.517600  -0.073903
    C   C18  0.067200  0.541330  0.632300  -0.147069
    H   H6   0.117200  0.572100  0.674900  0.112154
    O   O13  0.879700  0.388200  0.366600  -0.699197
    O   O14  0.793400  0.407600  0.503100  -0.678327
    C   C19  0.864200  0.415400  0.458700  0.832140
    C   C20  0.932800  0.458670  0.517600  -0.073914
    C   C21  0.932800  0.458670  0.632300  -0.147046
    H   H7   0.882800  0.427900  0.674900  0.112138
    O   O15  0.379700  0.888200  0.866600  -0.699196
    O   O16  0.293400  0.907600  0.003100  -0.678330
    C   C22  0.364200  0.915400  0.958700  0.832158
    C   C23  0.432800  0.958670  0.017600  -0.073939
    C   C24  0.432800  0.958670  0.132300  -0.147033
    H   H8   0.382800  0.927900  0.174900  0.112137
    O   O17  0.888200  0.379700  0.133400  -0.699181
    O   O18  0.907600  0.293400  0.996900  -0.678308
    C   C25  0.915400  0.364200  0.041300  0.832113
    C   C26  0.958670  0.432800  0.982400  -0.073918
    C   C27  0.958670  0.432800  0.867700  -0.147040
    H   H9   0.927900  0.382800  0.825100  0.112127
    O   O19  0.388200  0.879700  0.633400  -0.699182
    O   O20  0.407600  0.793400  0.496900  -0.678307
    C   C28  0.415400  0.864200  0.541300  0.832097
    C   C29  0.458670  0.932800  0.482400  -0.073878
    C   C30  0.458670  0.932800  0.367700  -0.147069
    H   H10  0.427900  0.882800  0.325100  0.112147
    O   O21  0.611800  0.120300  0.633400  -0.699187
    O   O22  0.592400  0.206600  0.496900  -0.678326
    C   C31  0.584600  0.135800  0.541300  0.832128
    C   C32  0.541330  0.067200  0.482400  -0.073892
    C   C33  0.541330  0.067200  0.367700  -0.147064
    H   H11  0.572100  0.117200  0.325100  0.112148
    O   O23  0.111800  0.620300  0.133400  -0.699199
    O   O24  0.092400  0.706600  0.996900  -0.678326
    C   C34  0.084600  0.635800  0.041300  0.832152
    C   C35  0.041330  0.567200  0.982400  -0.073927
    C   C36  0.041330  0.567200  0.867700  -0.147056
    H   H12  0.072100  0.617200  0.825100  0.112146
    O   O25  0.879700  0.111800  0.883400  -0.699244
    O   O26  0.793400  0.092400  0.746900  -0.678447
    C   C37  0.864200  0.084600  0.791300  0.832456
    C   C38  0.932800  0.041330  0.732400  -0.073999
    C   C39  0.932800  0.041330  0.617700  -0.146610
    H   H13  0.882800  0.072100  0.575100  0.111943
    O   O27  0.379700  0.611800  0.383400  -0.699256
    O   O28  0.293400  0.592400  0.246900  -0.678467
    C   C40  0.364200  0.584600  0.291300  0.832492
    C   C41  0.432800  0.541330  0.232400  -0.074008
    C   C42  0.432800  0.541330  0.117700  -0.146596
    H   H14  0.382800  0.572100  0.075100  0.111943
    O   O29  0.620300  0.388200  0.383400  -0.699270
    O   O30  0.706600  0.407600  0.246900  -0.678465
    C   C43  0.635800  0.415400  0.291300  0.832492
    C   C44  0.567200  0.458670  0.232400  -0.074003
    C   C45  0.567200  0.458670  0.117700  -0.146593
    H   H15  0.617200  0.427900  0.075100  0.111938
    O   O31  0.120300  0.888200  0.883400  -0.699254
    O   O32  0.206600  0.907600  0.746900  -0.678460
    C   C46  0.135800  0.915400  0.791300  0.832478
    C   C47  0.067200  0.958670  0.732400  -0.074009
    C   C48  0.067200  0.958670  0.617700  -0.146599
    H   H16  0.117200  0.927900  0.575100  0.111939
    In  In1  0.684200  0.315800  0.500000  1.834443
    In  In2  0.184200  0.815800  0.000000  1.834405
    In  In3  0.815800  0.184200  0.000000  1.834384
    In  In4  0.315800  0.684200  0.500000  1.834399
    In  In5  0.684200  0.184200  0.750000  1.834398
    In  In6  0.184200  0.684200  0.250000  1.834419
    In  In7  0.815800  0.315800  0.250000  1.834410
    In  In8  0.315800  0.815800  0.750000  1.834411
    O   O33  0.760800  0.250000  0.625000  -1.104066
    H   H17  0.818900  0.250000  0.625000  0.463145
    O   O34  0.260800  0.750000  0.125000  -1.104022
    H   H18  0.318900  0.750000  0.125000  0.463103
    O   O35  0.739200  0.250000  0.125000  -1.104028
    H   H19  0.681100  0.250000  0.125000  0.463107
    O   O36  0.239200  0.750000  0.625000  -1.104034
    H   H20  0.181100  0.750000  0.625000  0.463112
    O   O37  0.750000  0.260800  0.875000  -1.104069
    H   H21  0.750000  0.318900  0.875000  0.463152
    O   O38  0.250000  0.760800  0.375000  -1.104063
    H   H22  0.250000  0.818900  0.375000  0.463143
    O   O39  0.750000  0.239200  0.375000  -1.104038
    H   H23  0.750000  0.181100  0.375000  0.463110
    O   O40  0.250000  0.739200  0.875000  -1.104037
    H   H24  0.250000  0.681100  0.875000  0.463106
    C   C49  0.500000  0.500000  0.710300  -0.141575
    C   C50  0.500000  0.500000  0.939580  0.091269
    H   H25  0.500000  0.500000  0.625000  0.164732
    C   C51  0.000000  0.000000  0.210300  -0.141556
    C   C52  0.000000  0.000000  0.439580  0.091246
    H   H26  0.000000  0.000000  0.125000  0.164725
    C   C53  0.500000  0.000000  0.960300  -0.141265
    C   C54  0.500000  0.000000  0.189580  0.091518
    H   H27  0.500000  0.000000  0.875000  0.164593
    C   C55  0.000000  0.500000  0.460300  -0.141303
    C   C56  0.000000  0.500000  0.689580  0.091531
    H   H28  0.000000  0.500000  0.375000  0.164605
    C   C57  0.000000  0.500000  0.039700  -0.141276
    C   C58  0.000000  0.500000  0.810420  0.091519
    H   H29  0.000000  0.500000  0.125000  0.164599
    C   C59  0.500000  0.000000  0.539700  -0.141320
    C   C60  0.500000  0.000000  0.310420  0.091525
    H   H30  0.500000  0.000000  0.625000  0.164610
    C   C61  0.000000  0.000000  0.789700  -0.141573
    C   C62  0.000000  0.000000  0.560420  0.091231
    H   H31  0.000000  0.000000  0.875000  0.164732
    C   C63  0.500000  0.500000  0.289700  -0.141588
    C   C64  0.500000  0.500000  0.060420  0.091212
    H   H32  0.500000  0.500000  0.375000  0.164738
