# Generated by REPEAT Assigner based on pymatgen
data_DB12-ja506357n_si_002_clean
_audit_creation_date              2022-05-24
_audit_creation_method            REPEAT_Assigner
_cell_length_a                    9.860100
_cell_length_b                    12.730700
_cell_length_c                    17.647800
_cell_angle_alpha                 90.000000
_cell_angle_beta                  90.000000
_cell_angle_gamma                 90.000000
_cell_volume                      2215.257303
_symmetry_space_group_name_H-M    P1
_symmetry_Int_Tables_number       1
loop_
    _symmetry_equiv_pos_site_id
    _symmetry_equiv_pos_as_xyz
    1  x,y,z
loop_
    _atom_site_type_symbol
    _atom_site_label
    _atom_site_fract_x
    _atom_site_fract_y
    _atom_site_fract_z
    _atom_type_partial_charge
    Cu  Cu1  0.000000  0.250000  0.160080  0.637815
    Cu  Cu2  0.500000  0.750000  0.660080  0.637773
    H   H1   0.579100  0.199300  0.017300  0.089388
    H   H2   0.369800  0.678000  0.817400  0.127384
    H   H3   0.630200  0.822000  0.817400  0.127380
    H   H4   0.638900  0.526700  0.693500  0.123585
    H   H5   0.420900  0.300700  0.017300  0.089386
    H   H6   0.036400  0.619600  0.416500  0.063791
    H   H7   0.861100  0.026700  0.193500  0.123574
    H   H8   0.607200  0.502500  0.487000  0.084726
    H   H9   0.780700  0.922100  0.887000  0.146781
    H   H10  0.130200  0.178000  0.317400  0.127375
    H   H11  0.869800  0.322000  0.317400  0.127371
    H   H12  0.536400  0.380400  0.916500  0.063794
    H   H13  0.392800  0.997500  0.487000  0.084724
    H   H14  0.892800  0.002500  0.987000  0.084725
    H   H15  0.219300  0.577900  0.887000  0.146782
    H   H16  0.138900  0.473300  0.193500  0.123576
    H   H17  0.107200  0.497500  0.987000  0.084726
    H   H18  0.463600  0.119600  0.916500  0.063794
    H   H19  0.079100  0.800700  0.517300  0.089368
    H   H20  0.361100  0.973300  0.693500  0.123558
    H   H21  0.719300  0.422100  0.387000  0.146777
    H   H22  0.920900  0.699300  0.517300  0.089408
    H   H23  0.280700  0.077900  0.387000  0.146785
    H   H24  0.963600  0.880400  0.416500  0.063789
    C   C1   0.739800  0.979000  0.913300  -0.107476
    C   C2   0.886000  0.515100  0.392700  -0.129471
    C   C3   0.194600  0.473200  0.972700  -0.054278
    C   C4   0.448500  0.403800  0.930800  0.033157
    C   C5   0.069400  0.126300  0.298600  -0.011726
    C   C6   0.076300  0.457400  0.232700  0.274744
    C   C7   0.923700  0.042600  0.232700  0.274756
    C   C8   0.321400  0.835300  0.575000  0.633672
    C   C9   0.948500  0.596200  0.430800  0.033151
    C   C10  0.114000  0.984900  0.392700  -0.129529
    C   C11  0.379500  0.357000  0.990700  -0.077910
    C   C12  0.747600  0.109300  0.012300  -0.102263
    C   C13  0.752400  0.609300  0.512300  -0.102254
    C   C14  0.805400  0.026800  0.972700  -0.054274
    C   C15  0.678600  0.664700  0.575000  0.633636
    C   C16  0.051500  0.903800  0.430800  0.033184
    C   C17  0.551500  0.096200  0.930800  0.033157
    C   C18  0.614000  0.015100  0.892700  -0.129495
    C   C19  0.247600  0.890700  0.512300  -0.102317
    C   C20  0.569400  0.873700  0.798600  -0.011744
    C   C21  0.252400  0.390700  0.012300  -0.102262
    C   C22  0.879500  0.643000  0.490700  -0.077929
    C   C23  0.423700  0.957400  0.732700  0.274795
    C   C24  0.239800  0.021000  0.413300  -0.107475
    C   C25  0.694600  0.526800  0.472700  -0.054276
    C   C26  0.576300  0.542600  0.732700  0.274714
    C   C27  0.386000  0.484900  0.892700  -0.129485
    C   C28  0.260200  0.521000  0.913300  -0.107475
    C   C29  0.178600  0.335300  0.075000  0.633642
    C   C30  0.760200  0.479000  0.413300  -0.107479
    C   C31  0.930600  0.373700  0.298600  -0.011719
    C   C32  0.821400  0.164700  0.075000  0.633645
    C   C33  0.305400  0.973200  0.472700  -0.054248
    C   C34  0.620500  0.143000  0.990700  -0.077911
    C   C35  0.430600  0.626300  0.798600  -0.011740
    C   C36  0.120500  0.857000  0.490700  -0.077874
    N   N1   0.952700  0.468100  0.329400  0.454380
    N   N2   0.047300  0.031900  0.329400  0.454409
    N   N3   0.007800  0.364000  0.237400  -0.308309
    N   N4   0.507800  0.636000  0.737400  -0.308265
    N   N5   0.952900  0.977400  0.287700  -0.499011
    N   N6   0.547300  0.968100  0.829400  0.454417
    N   N7   0.047100  0.522600  0.287700  -0.498999
    N   N8   0.452900  0.022600  0.787700  -0.499021
    N   N9   0.547100  0.477400  0.787700  -0.498993
    N   N10  0.492200  0.864000  0.737400  -0.308327
    N   N11  0.992200  0.136000  0.237400  -0.308317
    N   N12  0.452700  0.531900  0.829400  0.454387
    O   O1   0.948700  0.148100  0.080410  -0.489621
    O   O2   0.448700  0.851900  0.580410  -0.489613
    O   O3   0.258700  0.775900  0.617900  -0.570593
    O   O4   0.741300  0.724100  0.617900  -0.570581
    O   O5   0.051300  0.351900  0.080410  -0.489618
    O   O6   0.758700  0.224100  0.117900  -0.570592
    O   O7   0.551300  0.648100  0.580410  -0.489617
    O   O8   0.241300  0.275900  0.117900  -0.570590
    Cu  Cu3  0.500000  0.250000  0.339920  0.638258
    Cu  Cu4  0.000000  0.750000  0.839920  0.638269
    H   H25  0.638900  0.026700  0.306500  0.123572
    H   H26  0.579100  0.699300  0.982700  0.089397
    H   H27  0.138900  0.973300  0.806500  0.123569
    H   H28  0.780700  0.422100  0.113000  0.146791
    H   H29  0.036400  0.119600  0.583500  0.063792
    H   H30  0.463600  0.619600  0.083500  0.063795
    H   H31  0.861100  0.526700  0.806500  0.123575
    H   H32  0.630200  0.322000  0.182600  0.127375
    H   H33  0.536400  0.880400  0.083500  0.063794
    H   H34  0.392800  0.497500  0.513000  0.084717
    H   H35  0.130200  0.678000  0.682600  0.127382
    H   H36  0.719300  0.922100  0.613000  0.146932
    H   H37  0.869800  0.822000  0.682600  0.127368
    H   H38  0.361100  0.473300  0.306500  0.123577
    H   H39  0.369800  0.178000  0.182600  0.127372
    H   H40  0.420900  0.800700  0.982700  0.089391
    H   H41  0.607200  0.002500  0.513000  0.084643
    H   H42  0.963600  0.380400  0.583500  0.063788
    H   H43  0.892800  0.502500  0.013000  0.084724
    H   H44  0.219300  0.077900  0.113000  0.146792
    H   H45  0.107200  0.997500  0.013000  0.084722
    H   H46  0.079100  0.300700  0.482700  0.089392
    H   H47  0.920900  0.199300  0.482700  0.089358
    H   H48  0.280700  0.577900  0.613000  0.146797
    C   C37  0.886000  0.015100  0.607300  -0.129335
    C   C38  0.194600  0.973200  0.027300  -0.054256
    C   C39  0.120500  0.357000  0.509300  -0.077909
    C   C40  0.260200  0.021000  0.086700  -0.107510
    C   C41  0.051500  0.403800  0.569200  0.033154
    C   C42  0.930600  0.873700  0.701400  -0.011697
    C   C43  0.760200  0.979000  0.586700  -0.107900
    C   C44  0.076300  0.957400  0.767300  0.274758
    C   C45  0.239800  0.521000  0.586700  -0.107516
    C   C46  0.178600  0.835300  0.925000  0.633658
    C   C47  0.247600  0.390700  0.487700  -0.102263
    C   C48  0.430600  0.126300  0.201400  -0.011715
    C   C49  0.576300  0.042600  0.267300  0.274751
    C   C50  0.423700  0.457400  0.267300  0.274744
    C   C51  0.923700  0.542600  0.767300  0.274746
    C   C52  0.620500  0.643000  0.009300  -0.077923
    C   C53  0.386000  0.984900  0.107300  -0.129458
    C   C54  0.879500  0.143000  0.509300  -0.077794
    C   C55  0.114000  0.484900  0.607300  -0.129452
    C   C56  0.694600  0.026800  0.527300  -0.053956
    C   C57  0.569400  0.373700  0.201400  -0.011720
    C   C58  0.448500  0.903800  0.069200  0.033154
    C   C59  0.614000  0.515100  0.107300  -0.129458
    C   C60  0.821400  0.664700  0.925000  0.633654
    C   C61  0.678600  0.164700  0.425000  0.633683
    C   C62  0.321400  0.335300  0.425000  0.633648
    C   C63  0.551500  0.596200  0.069200  0.033153
    C   C64  0.305400  0.473200  0.527300  -0.054250
    C   C65  0.948500  0.096200  0.569200  0.033099
    C   C66  0.069400  0.626300  0.701400  -0.011737
    C   C67  0.752400  0.109300  0.487700  -0.102412
    C   C68  0.252400  0.890700  0.987700  -0.102262
    C   C69  0.379500  0.857000  0.009300  -0.077917
    C   C70  0.747600  0.609300  0.987700  -0.102251
    C   C71  0.739800  0.479000  0.086700  -0.107507
    C   C72  0.805400  0.526800  0.027300  -0.054263
    N   N13  0.492200  0.364000  0.262600  -0.308270
    N   N14  0.452900  0.522600  0.212300  -0.498993
    N   N15  0.047100  0.022600  0.712300  -0.499002
    N   N16  0.547300  0.468100  0.170600  0.454373
    N   N17  0.007800  0.864000  0.762600  -0.308290
    N   N18  0.047300  0.531900  0.670600  0.454368
    N   N19  0.952900  0.477400  0.712300  -0.498987
    N   N20  0.992200  0.636000  0.762600  -0.308269
    N   N21  0.952700  0.968100  0.670600  0.454372
    N   N22  0.507800  0.136000  0.262600  -0.308273
    N   N23  0.547100  0.977400  0.212300  -0.498997
    N   N24  0.452700  0.031900  0.170600  0.454376
    O   O9   0.551300  0.148100  0.419590  -0.489567
    O   O10  0.758700  0.724100  0.882100  -0.570599
    O   O11  0.241300  0.775900  0.882100  -0.570600
    O   O12  0.448700  0.351900  0.419590  -0.489545
    O   O13  0.948700  0.648100  0.919590  -0.489555
    O   O14  0.051300  0.851900  0.919590  -0.489549
    O   O15  0.258700  0.275900  0.382100  -0.570591
    O   O16  0.741300  0.224100  0.382100  -0.570587
