# generated using pymatgen
data_CuH13C21O5F
_symmetry_space_group_name_H-M   'P 1'
_cell_length_a   25.74130000
_cell_length_b   25.74130000
_cell_length_c   23.65200000
_cell_angle_alpha   90.00000000
_cell_angle_beta   90.00000000
_cell_angle_gamma   90.00000000
_symmetry_Int_Tables_number   1
_chemical_formula_structural   CuH13C21O5F
_chemical_formula_sum   'Cu16 H208 C336 O80 F16'
_cell_volume   15672.15876162
_cell_formula_units_Z   16
loop_
 _symmetry_equiv_pos_site_id
 _symmetry_equiv_pos_as_xyz
  1  'x, y, z'
loop_
 _atom_site_type_symbol
 _atom_site_label
 _atom_site_symmetry_multiplicity
 _atom_site_fract_x
 _atom_site_fract_y
 _atom_site_fract_z
 _atom_site_occupancy
  Cu  Cu1  1  0.01014500  0.95338500  0.96030900  1
  Cu  Cu2  1  0.01014500  0.02632400  0.03969100  1
  Cu  Cu3  1  0.51014500  0.02632400  0.46030900  1
  Cu  Cu4  1  0.51014500  0.95338500  0.53969100  1
  Cu  Cu5  1  0.29661500  0.73985500  0.21030900  1
  Cu  Cu6  1  0.22367600  0.73985500  0.28969100  1
  Cu  Cu7  1  0.22367600  0.23985500  0.71030900  1
  Cu  Cu8  1  0.29661500  0.23985500  0.78969100  1
  Cu  Cu9  1  0.72367600  0.23985500  0.78969100  1
  Cu  Cu10  1  0.79661500  0.23985500  0.71030900  1
  Cu  Cu11  1  0.79661500  0.73985500  0.28969100  1
  Cu  Cu12  1  0.72367600  0.73985500  0.21030900  1
  Cu  Cu13  1  0.51014500  0.45338500  0.46030900  1
  Cu  Cu14  1  0.51014500  0.52632400  0.53969100  1
  Cu  Cu15  1  0.01014500  0.52632400  0.96030900  1
  Cu  Cu16  1  0.01014500  0.45338500  0.03969100  1
  H  H1  1  0.75370800  0.85251300  0.90194400  1
  H  H2  1  0.82567000  0.82567000  0.84330400  1
  H  H3  1  0.91783300  0.83381700  0.88150700  1
  H  H4  1  0.93472600  0.85461400  0.98351200  1
  H  H5  1  0.72609900  0.94166800  0.96650300  1
  H  H6  1  0.79552600  0.95253500  0.98665400  1
  H  H7  1  0.80978700  0.01430300  0.05539300  1
  H  H8  1  0.78276600  0.05251900  0.15015700  1
  H  H9  1  0.63859000  0.97347600  0.14616200  1
  H  H10  1  0.66592600  0.92252000  0.06310800  1
  H  H11  1  0.89373700  0.87409400  0.22612200  1
  H  H12  1  0.94588000  0.92180700  0.15854400  1
  H  H13  1  0.79527700  0.82954900  0.09074400  1
  H  H14  1  0.76658300  0.12719600  0.40194400  1
  H  H15  1  0.69462100  0.15403900  0.34330400  1
  H  H16  1  0.60245800  0.14589200  0.38150700  1
  H  H17  1  0.58556500  0.12509500  0.48351200  1
  H  H18  1  0.79419100  0.03804100  0.46650300  1
  H  H19  1  0.72476500  0.02717400  0.48665400  1
  H  H20  1  0.71050400  0.96540600  0.55539300  1
  H  H21  1  0.73752500  0.92719000  0.65015700  1
  H  H22  1  0.88170100  0.00623300  0.64616200  1
  H  H23  1  0.85436500  0.05718900  0.56310800  1
  H  H24  1  0.62655400  0.10561500  0.72612200  1
  H  H25  1  0.57441100  0.05790200  0.65854400  1
  H  H26  1  0.72501400  0.15016000  0.59074400  1
  H  H27  1  0.39748700  0.48341700  0.15194400  1
  H  H28  1  0.42433000  0.55537900  0.09330400  1
  H  H29  1  0.41618300  0.64754200  0.13150700  1
  H  H30  1  0.39538600  0.66443500  0.23351200  1
  H  H31  1  0.30833200  0.45580900  0.21650300  1
  H  H32  1  0.29746500  0.52523500  0.23665400  1
  H  H33  1  0.23569700  0.53949600  0.30539300  1
  H  H34  1  0.19748100  0.51247500  0.40015700  1
  H  H35  1  0.27652400  0.36829900  0.39616200  1
  H  H36  1  0.32748000  0.39563500  0.31310800  1
  H  H37  1  0.37590600  0.62344600  0.47612200  1
  H  H38  1  0.32819300  0.67558900  0.40854400  1
  H  H39  1  0.42045100  0.52498600  0.34074400  1
  H  H40  1  0.12280400  0.49629200  0.65194400  1
  H  H41  1  0.09596100  0.42433000  0.59330400  1
  H  H42  1  0.10410800  0.33216700  0.63150700  1
  H  H43  1  0.12490500  0.31527400  0.73351200  1
  H  H44  1  0.21195900  0.52390100  0.71650300  1
  H  H45  1  0.22282600  0.45447400  0.73665400  1
  H  H46  1  0.28459400  0.44021300  0.80539300  1
  H  H47  1  0.32281000  0.46723400  0.90015700  1
  H  H48  1  0.24376700  0.61141000  0.89616200  1
  H  H49  1  0.19281100  0.58407400  0.81310800  1
  H  H50  1  0.14438500  0.35626300  0.97612200  1
  H  H51  1  0.19209800  0.30412000  0.90854400  1
  H  H52  1  0.09984000  0.45472300  0.84074400  1
  H  H53  1  0.76658300  0.85251300  0.59805600  1
  H  H54  1  0.69462100  0.82567000  0.65669600  1
  H  H55  1  0.60245800  0.83381700  0.61849300  1
  H  H56  1  0.58556500  0.85461400  0.51648800  1
  H  H57  1  0.79419100  0.94166800  0.53349700  1
  H  H58  1  0.72476500  0.95253500  0.51334600  1
  H  H59  1  0.71050400  0.01430300  0.44460700  1
  H  H60  1  0.73752500  0.05251900  0.34984300  1
  H  H61  1  0.88170100  0.97347600  0.35383800  1
  H  H62  1  0.85436500  0.92252000  0.43689200  1
  H  H63  1  0.62655400  0.87409400  0.27387800  1
  H  H64  1  0.57441100  0.92180700  0.34145600  1
  H  H65  1  0.72501400  0.82954900  0.40925600  1
  H  H66  1  0.75370800  0.12719600  0.09805600  1
  H  H67  1  0.82567000  0.15403900  0.15669600  1
  H  H68  1  0.91783300  0.14589200  0.11849300  1
  H  H69  1  0.93472600  0.12509500  0.01648800  1
  H  H70  1  0.72609900  0.03804100  0.03349700  1
  H  H71  1  0.79552600  0.02717400  0.01334600  1
  H  H72  1  0.80978700  0.96540600  0.94460700  1
  H  H73  1  0.78276600  0.92719000  0.84984300  1
  H  H74  1  0.63859000  0.00623300  0.85383800  1
  H  H75  1  0.66592600  0.05718900  0.93689200  1
  H  H76  1  0.89373700  0.10561500  0.77387800  1
  H  H77  1  0.94588000  0.05790200  0.84145600  1
  H  H78  1  0.79527700  0.15016000  0.90925600  1
  H  H79  1  0.12280400  0.48341700  0.34805600  1
  H  H80  1  0.09596100  0.55537900  0.40669600  1
  H  H81  1  0.10410800  0.64754200  0.36849300  1
  H  H82  1  0.12490500  0.66443500  0.26648800  1
  H  H83  1  0.21195900  0.45580900  0.28349700  1
  H  H84  1  0.22282600  0.52523500  0.26334600  1
  H  H85  1  0.28459400  0.53949600  0.19460700  1
  H  H86  1  0.32281000  0.51247500  0.09984300  1
  H  H87  1  0.24376700  0.36829900  0.10383800  1
  H  H88  1  0.19281100  0.39563500  0.18689200  1
  H  H89  1  0.14438500  0.62344600  0.02387800  1
  H  H90  1  0.19209800  0.67558900  0.09145600  1
  H  H91  1  0.09984000  0.52498600  0.15925600  1
  H  H92  1  0.39748700  0.49629200  0.84805600  1
  H  H93  1  0.42433000  0.42433000  0.90669600  1
  H  H94  1  0.41618300  0.33216700  0.86849300  1
  H  H95  1  0.39538600  0.31527400  0.76648800  1
  H  H96  1  0.30833200  0.52390100  0.78349700  1
  H  H97  1  0.29746500  0.45447400  0.76334600  1
  H  H98  1  0.23569700  0.44021300  0.69460700  1
  H  H99  1  0.19748100  0.46723400  0.59984300  1
  H  H100  1  0.27652400  0.61141000  0.60383800  1
  H  H101  1  0.32748000  0.58407400  0.68689200  1
  H  H102  1  0.37590600  0.35626300  0.52387800  1
  H  H103  1  0.32819300  0.30412000  0.59145600  1
  H  H104  1  0.42045100  0.45472300  0.65925600  1
  H  H105  1  0.26658300  0.12719600  0.09805600  1
  H  H106  1  0.19462100  0.15403900  0.15669600  1
  H  H107  1  0.10245800  0.14589200  0.11849300  1
  H  H108  1  0.08556500  0.12509500  0.01648800  1
  H  H109  1  0.29419100  0.03804100  0.03349700  1
  H  H110  1  0.22476500  0.02717400  0.01334600  1
  H  H111  1  0.21050400  0.96540600  0.94460700  1
  H  H112  1  0.23752500  0.92719000  0.84984300  1
  H  H113  1  0.38170100  0.00623300  0.85383800  1
  H  H114  1  0.35436500  0.05718900  0.93689200  1
  H  H115  1  0.12655400  0.10561500  0.77387800  1
  H  H116  1  0.07441100  0.05790200  0.84145600  1
  H  H117  1  0.22501400  0.15016000  0.90925600  1
  H  H118  1  0.25370800  0.85251300  0.59805600  1
  H  H119  1  0.32567000  0.82567000  0.65669600  1
  H  H120  1  0.41783300  0.83381700  0.61849300  1
  H  H121  1  0.43472600  0.85461400  0.51648800  1
  H  H122  1  0.22609900  0.94166800  0.53349700  1
  H  H123  1  0.29552600  0.95253500  0.51334600  1
  H  H124  1  0.30978700  0.01430300  0.44460700  1
  H  H125  1  0.28276600  0.05251900  0.34984300  1
  H  H126  1  0.13859000  0.97347600  0.35383800  1
  H  H127  1  0.16592600  0.92252000  0.43689200  1
  H  H128  1  0.39373700  0.87409400  0.27387800  1
  H  H129  1  0.44588000  0.92180700  0.34145600  1
  H  H130  1  0.29527700  0.82954900  0.40925600  1
  H  H131  1  0.62280400  0.49629200  0.84805600  1
  H  H132  1  0.59596100  0.42433000  0.90669600  1
  H  H133  1  0.60410800  0.33216700  0.86849300  1
  H  H134  1  0.62490500  0.31527400  0.76648800  1
  H  H135  1  0.71195900  0.52390100  0.78349700  1
  H  H136  1  0.72282600  0.45447400  0.76334600  1
  H  H137  1  0.78459400  0.44021300  0.69460700  1
  H  H138  1  0.82281000  0.46723400  0.59984300  1
  H  H139  1  0.74376700  0.61141000  0.60383800  1
  H  H140  1  0.69281100  0.58407400  0.68689200  1
  H  H141  1  0.64438500  0.35626300  0.52387800  1
  H  H142  1  0.69209800  0.30412000  0.59145600  1
  H  H143  1  0.59984000  0.45472300  0.65925600  1
  H  H144  1  0.89748700  0.48341700  0.34805600  1
  H  H145  1  0.92433000  0.55537900  0.40669600  1
  H  H146  1  0.91618300  0.64754200  0.36849300  1
  H  H147  1  0.89538600  0.66443500  0.26648800  1
  H  H148  1  0.80833200  0.45580900  0.28349700  1
  H  H149  1  0.79746500  0.52523500  0.26334600  1
  H  H150  1  0.73569700  0.53949600  0.19460700  1
  H  H151  1  0.69748100  0.51247500  0.09984300  1
  H  H152  1  0.77652400  0.36829900  0.10383800  1
  H  H153  1  0.82748000  0.39563500  0.18689200  1
  H  H154  1  0.87590600  0.62344600  0.02387800  1
  H  H155  1  0.82819300  0.67558900  0.09145600  1
  H  H156  1  0.92045100  0.52498600  0.15925600  1
  H  H157  1  0.25370800  0.12719600  0.40194400  1
  H  H158  1  0.32567000  0.15403900  0.34330400  1
  H  H159  1  0.41783300  0.14589200  0.38150700  1
  H  H160  1  0.43472600  0.12509500  0.48351200  1
  H  H161  1  0.22609900  0.03804100  0.46650300  1
  H  H162  1  0.29552600  0.02717400  0.48665400  1
  H  H163  1  0.30978700  0.96540600  0.55539300  1
  H  H164  1  0.28276600  0.92719000  0.65015700  1
  H  H165  1  0.13859000  0.00623300  0.64616200  1
  H  H166  1  0.16592600  0.05718900  0.56310800  1
  H  H167  1  0.39373700  0.10561500  0.72612200  1
  H  H168  1  0.44588000  0.05790200  0.65854400  1
  H  H169  1  0.29527700  0.15016000  0.59074400  1
  H  H170  1  0.26658300  0.85251300  0.90194400  1
  H  H171  1  0.19462100  0.82567000  0.84330400  1
  H  H172  1  0.10245800  0.83381700  0.88150700  1
  H  H173  1  0.08556500  0.85461400  0.98351200  1
  H  H174  1  0.29419100  0.94166800  0.96650300  1
  H  H175  1  0.22476500  0.95253500  0.98665400  1
  H  H176  1  0.21050400  0.01430300  0.05539300  1
  H  H177  1  0.23752500  0.05251900  0.15015700  1
  H  H178  1  0.38170100  0.97347600  0.14616200  1
  H  H179  1  0.35436500  0.92252000  0.06310800  1
  H  H180  1  0.12655400  0.87409400  0.22612200  1
  H  H181  1  0.07441100  0.92180700  0.15854400  1
  H  H182  1  0.22501400  0.82954900  0.09074400  1
  H  H183  1  0.89748700  0.49629200  0.65194400  1
  H  H184  1  0.92433000  0.42433000  0.59330400  1
  H  H185  1  0.91618300  0.33216700  0.63150700  1
  H  H186  1  0.89538600  0.31527400  0.73351200  1
  H  H187  1  0.80833200  0.52390100  0.71650300  1
  H  H188  1  0.79746500  0.45447400  0.73665400  1
  H  H189  1  0.73569700  0.44021300  0.80539300  1
  H  H190  1  0.69748100  0.46723400  0.90015700  1
  H  H191  1  0.77652400  0.61141000  0.89616200  1
  H  H192  1  0.82748000  0.58407400  0.81310800  1
  H  H193  1  0.87590600  0.35626300  0.97612200  1
  H  H194  1  0.82819300  0.30412000  0.90854400  1
  H  H195  1  0.92045100  0.45472300  0.84074400  1
  H  H196  1  0.62280400  0.48341700  0.15194400  1
  H  H197  1  0.59596100  0.55537900  0.09330400  1
  H  H198  1  0.60410800  0.64754200  0.13150700  1
  H  H199  1  0.62490500  0.66443500  0.23351200  1
  H  H200  1  0.71195900  0.45580900  0.21650300  1
  H  H201  1  0.72282600  0.52523500  0.23665400  1
  H  H202  1  0.78459400  0.53949600  0.30539300  1
  H  H203  1  0.82281000  0.51247500  0.40015700  1
  H  H204  1  0.74376700  0.36829900  0.39616200  1
  H  H205  1  0.69281100  0.39563500  0.31310800  1
  H  H206  1  0.64438500  0.62344600  0.47612200  1
  H  H207  1  0.69209800  0.67558900  0.40854400  1
  H  H208  1  0.59984000  0.52498600  0.34074400  1
  C  C1  1  0.07942300  0.53884100  0.05331400  1
  C  C2  1  0.07942300  0.44086800  0.94668600  1
  C  C3  1  0.94086800  0.44086800  0.94668600  1
  C  C4  1  0.94086800  0.53884100  0.05331400  1
  C  C5  1  0.07942300  0.94086800  0.05331400  1
  C  C6  1  0.85253300  0.86259100  0.00379800  1
  C  C7  1  0.80151700  0.86386900  0.97748900  1
  C  C8  1  0.79396100  0.85034600  0.92100200  1
  C  C9  1  0.83773800  0.84050300  0.88598400  1
  C  C10  1  0.88632600  0.84089200  0.90957200  1
  C  C11  1  0.89511900  0.85042100  0.96931300  1
  C  C12  1  0.75566000  0.93563900  0.99717900  1
  C  C13  1  0.73704500  0.96661200  0.04908800  1
  C  C14  1  0.77345300  0.00325700  0.07685700  1
  C  C15  1  0.76011900  0.02578700  0.12729600  1
  C  C16  1  0.70850900  0.01574600  0.15127700  1
  C  C17  1  0.67439300  0.98132500  0.12548700  1
  C  C18  1  0.69026200  0.95441600  0.07645800  1
  C  C19  1  0.84072100  0.84701400  0.16061900  1
  C  C20  1  0.88125400  0.87355600  0.18205300  1
  C  C21  1  0.91394600  0.90071400  0.14313600  1
  C  C22  1  0.90328000  0.90149200  0.08424100  1
  C  C23  1  0.86222300  0.87399700  0.06344900  1
  C  C24  1  0.82734100  0.85208400  0.10429700  1
  C  C25  1  0.66775800  0.11711800  0.50379800  1
  C  C26  1  0.71877400  0.11584100  0.47748900  1
  C  C27  1  0.72633000  0.12936300  0.42100200  1
  C  C28  1  0.68255300  0.13920600  0.38598400  1
  C  C29  1  0.63396500  0.13881700  0.40957200  1
  C  C30  1  0.62517200  0.12928800  0.46931300  1
  C  C31  1  0.76463100  0.04407000  0.49717900  1
  C  C32  1  0.78324600  0.01309700  0.54908800  1
  C  C33  1  0.74683800  0.97645200  0.57685700  1
  C  C34  1  0.76017200  0.95392200  0.62729600  1
  C  C35  1  0.81178200  0.96396300  0.65127700  1
  C  C36  1  0.84589800  0.99838500  0.62548700  1
  C  C37  1  0.83002900  0.02529300  0.57645800  1
  C  C38  1  0.57942300  0.03884100  0.55331400  1
  C  C39  1  0.67957000  0.13269600  0.66061900  1
  C  C40  1  0.63903700  0.10615300  0.68205300  1
  C  C41  1  0.60634500  0.07899500  0.64313600  1
  C  C42  1  0.61701100  0.07821700  0.58424100  1
  C  C43  1  0.65806800  0.10571200  0.56344900  1
  C  C44  1  0.69295000  0.12762500  0.60429700  1
  C  C45  1  0.38740900  0.58224200  0.25379800  1
  C  C46  1  0.38613100  0.53122600  0.22748900  1
  C  C47  1  0.39965400  0.52367000  0.17100200  1
  C  C48  1  0.40949700  0.56744700  0.13598400  1
  C  C49  1  0.40910800  0.61603500  0.15957200  1
  C  C50  1  0.39957900  0.62482800  0.21931300  1
  C  C51  1  0.31436100  0.48536900  0.24717900  1
  C  C52  1  0.28338800  0.46675400  0.29908800  1
  C  C53  1  0.24674300  0.50316200  0.32685700  1
  C  C54  1  0.57942300  0.94086800  0.44668600  1
  C  C55  1  0.22421300  0.48982800  0.37729600  1
  C  C56  1  0.23425400  0.43821800  0.40127700  1
  C  C57  1  0.26867500  0.40410200  0.37548700  1
  C  C58  1  0.29558400  0.41997100  0.32645800  1
  C  C59  1  0.94086800  0.94086800  0.05331400  1
  C  C60  1  0.40298600  0.57043000  0.41061900  1
  C  C61  1  0.37644400  0.61096300  0.43205300  1
  C  C62  1  0.34928600  0.64365500  0.39313600  1
  C  C63  1  0.34850800  0.63298900  0.33424100  1
  C  C64  1  0.37600300  0.59193200  0.31344900  1
  C  C65  1  0.39791600  0.55705000  0.35429700  1
  C  C66  1  0.13288200  0.39746700  0.75379800  1
  C  C67  1  0.13415900  0.44848300  0.72748900  1
  C  C68  1  0.12063700  0.45603900  0.67100200  1
  C  C69  1  0.11079400  0.41226200  0.63598400  1
  C  C70  1  0.11118300  0.36367400  0.65957200  1
  C  C71  1  0.12071200  0.35488100  0.71931300  1
  C  C72  1  0.44086800  0.94086800  0.44668600  1
  C  C73  1  0.20593000  0.49434000  0.74717900  1
  C  C74  1  0.23690300  0.51295500  0.79908800  1
  C  C75  1  0.27354800  0.47654700  0.82685700  1
  C  C76  1  0.29607800  0.48988100  0.87729600  1
  C  C77  1  0.28603700  0.54149100  0.90127700  1
  C  C78  1  0.25161500  0.57560700  0.87548700  1
  C  C79  1  0.22470700  0.55973800  0.82645800  1
  C  C80  1  0.11730400  0.40927900  0.91061900  1
  C  C81  1  0.14384700  0.36874600  0.93205300  1
  C  C82  1  0.17100500  0.33605400  0.89313600  1
  C  C83  1  0.17178300  0.34672000  0.83424100  1
  C  C84  1  0.14428800  0.38777700  0.81344900  1
  C  C85  1  0.12237500  0.42265900  0.85429700  1
  C  C86  1  0.66775800  0.86259100  0.49620200  1
  C  C87  1  0.71877400  0.86386900  0.52251100  1
  C  C88  1  0.44086800  0.03884100  0.55331400  1
  C  C89  1  0.72633000  0.85034600  0.57899800  1
  C  C90  1  0.68255300  0.84050300  0.61401600  1
  C  C91  1  0.63396500  0.84089200  0.59042800  1
  C  C92  1  0.62517200  0.85042100  0.53068700  1
  C  C93  1  0.76463100  0.93563900  0.50282100  1
  C  C94  1  0.78324600  0.96661200  0.45091200  1
  C  C95  1  0.74683800  0.00325700  0.42314300  1
  C  C96  1  0.76017200  0.02578700  0.37270400  1
  C  C97  1  0.81178200  0.01574600  0.34872300  1
  C  C98  1  0.84589800  0.98132500  0.37451300  1
  C  C99  1  0.83002900  0.95441600  0.42354200  1
  C  C100  1  0.67957000  0.84701400  0.33938100  1
  C  C101  1  0.63903700  0.87355600  0.31794700  1
  C  C102  1  0.60634500  0.90071400  0.35686400  1
  C  C103  1  0.61701100  0.90149200  0.41575900  1
  C  C104  1  0.65806800  0.87399700  0.43655100  1
  C  C105  1  0.69295000  0.85208400  0.39570300  1
  C  C106  1  0.85253300  0.11711800  0.99620200  1
  C  C107  1  0.80151700  0.11584100  0.02251100  1
  C  C108  1  0.79396100  0.12936300  0.07899800  1
  C  C109  1  0.83773800  0.13920600  0.11401600  1
  C  C110  1  0.88632600  0.13881700  0.09042800  1
  C  C111  1  0.89511900  0.12928800  0.03068700  1
  C  C112  1  0.75566000  0.04407000  0.00282100  1
  C  C113  1  0.73704500  0.01309700  0.95091200  1
  C  C114  1  0.77345300  0.97645200  0.92314300  1
  C  C115  1  0.76011900  0.95392200  0.87270400  1
  C  C116  1  0.70850900  0.96396300  0.84872300  1
  C  C117  1  0.67439300  0.99838500  0.87451300  1
  C  C118  1  0.69026200  0.02529300  0.92354200  1
  C  C119  1  0.30913200  0.67057700  0.30331400  1
  C  C120  1  0.84072100  0.13269600  0.83938100  1
  C  C121  1  0.88125400  0.10615300  0.81794700  1
  C  C122  1  0.91394600  0.07899500  0.85686400  1
  C  C123  1  0.90328000  0.07821700  0.91575900  1
  C  C124  1  0.86222300  0.10571200  0.93655100  1
  C  C125  1  0.82734100  0.12762500  0.89570300  1
  C  C126  1  0.13288200  0.58224200  0.24620200  1
  C  C127  1  0.13415900  0.53122600  0.27251100  1
  C  C128  1  0.12063700  0.52367000  0.32899800  1
  C  C129  1  0.11079400  0.56744700  0.36401600  1
  C  C130  1  0.11118300  0.61603500  0.34042800  1
  C  C131  1  0.12071200  0.62482800  0.28068700  1
  C  C132  1  0.20593000  0.48536900  0.25282100  1
  C  C133  1  0.23690300  0.46675400  0.20091200  1
  C  C134  1  0.27354800  0.50316200  0.17314300  1
  C  C135  1  0.29607800  0.48982800  0.12270400  1
  C  C136  1  0.28603700  0.43821800  0.09872300  1
  C  C137  1  0.25161500  0.40410200  0.12451300  1
  C  C138  1  0.22470700  0.41997100  0.17354200  1
  C  C139  1  0.21115900  0.67057700  0.19668600  1
  C  C140  1  0.11730400  0.57043000  0.08938100  1
  C  C141  1  0.14384700  0.61096300  0.06794700  1
  C  C142  1  0.17100500  0.64365500  0.10686400  1
  C  C143  1  0.17178300  0.63298900  0.16575900  1
  C  C144  1  0.14428800  0.59193200  0.18655100  1
  C  C145  1  0.12237500  0.55705000  0.14570300  1
  C  C146  1  0.38740900  0.39746700  0.74620200  1
  C  C147  1  0.38613100  0.44848300  0.77251100  1
  C  C148  1  0.39965400  0.45603900  0.82899800  1
  C  C149  1  0.40949700  0.41226200  0.86401600  1
  C  C150  1  0.40910800  0.36367400  0.84042800  1
  C  C151  1  0.39957900  0.35488100  0.78068700  1
  C  C152  1  0.31436100  0.49434000  0.75282100  1
  C  C153  1  0.28338800  0.51295500  0.70091200  1
  C  C154  1  0.24674300  0.47654700  0.67314300  1
  C  C155  1  0.21115900  0.80913200  0.19668600  1
  C  C156  1  0.22421300  0.48988100  0.62270400  1
  C  C157  1  0.23425400  0.54149100  0.59872300  1
  C  C158  1  0.26867500  0.57560700  0.62451300  1
  C  C159  1  0.29558400  0.55973800  0.67354200  1
  C  C160  1  0.40298600  0.40927900  0.58938100  1
  C  C161  1  0.37644400  0.36874600  0.56794700  1
  C  C162  1  0.34928600  0.33605400  0.60686400  1
  C  C163  1  0.34850800  0.34672000  0.66575900  1
  C  C164  1  0.37600300  0.38777700  0.68655100  1
  C  C165  1  0.39791600  0.42265900  0.64570300  1
  C  C166  1  0.16775800  0.11711800  0.99620200  1
  C  C167  1  0.21877400  0.11584100  0.02251100  1
  C  C168  1  0.22633000  0.12936300  0.07899800  1
  C  C169  1  0.18255300  0.13920600  0.11401600  1
  C  C170  1  0.13396500  0.13881700  0.09042800  1
  C  C171  1  0.12517200  0.12928800  0.03068700  1
  C  C172  1  0.30913200  0.80913200  0.30331400  1
  C  C173  1  0.26463100  0.04407000  0.00282100  1
  C  C174  1  0.28324600  0.01309700  0.95091200  1
  C  C175  1  0.24683800  0.97645200  0.92314300  1
  C  C176  1  0.26017200  0.95392200  0.87270400  1
  C  C177  1  0.31178200  0.96396300  0.84872300  1
  C  C178  1  0.34589800  0.99838500  0.87451300  1
  C  C179  1  0.33002900  0.02529300  0.92354200  1
  C  C180  1  0.17957000  0.13269600  0.83938100  1
  C  C181  1  0.13903700  0.10615300  0.81794700  1
  C  C182  1  0.10634500  0.07899500  0.85686400  1
  C  C183  1  0.11701100  0.07821700  0.91575900  1
  C  C184  1  0.15806800  0.10571200  0.93655100  1
  C  C185  1  0.19295000  0.12762500  0.89570300  1
  C  C186  1  0.35253300  0.86259100  0.49620200  1
  C  C187  1  0.30151700  0.86386900  0.52251100  1
  C  C188  1  0.29396100  0.85034600  0.57899800  1
  C  C189  1  0.33773800  0.84050300  0.61401600  1
  C  C190  1  0.38632600  0.84089200  0.59042800  1
  C  C191  1  0.39511900  0.85042100  0.53068700  1
  C  C192  1  0.25566000  0.93563900  0.50282100  1
  C  C193  1  0.23704500  0.96661200  0.45091200  1
  C  C194  1  0.27345300  0.00325700  0.42314300  1
  C  C195  1  0.26011900  0.02578700  0.37270400  1
  C  C196  1  0.20850900  0.01574600  0.34872300  1
  C  C197  1  0.17439300  0.98132500  0.37451300  1
  C  C198  1  0.19026200  0.95441600  0.42354200  1
  C  C199  1  0.21115900  0.30913200  0.80331400  1
  C  C200  1  0.34072100  0.84701400  0.33938100  1
  C  C201  1  0.38125400  0.87355600  0.31794700  1
  C  C202  1  0.41394600  0.90071400  0.35686400  1
  C  C203  1  0.40328000  0.90149200  0.41575900  1
  C  C204  1  0.36222300  0.87399700  0.43655100  1
  C  C205  1  0.32734100  0.85208400  0.39570300  1
  C  C206  1  0.63288200  0.39746700  0.74620200  1
  C  C207  1  0.63415900  0.44848300  0.77251100  1
  C  C208  1  0.62063700  0.45603900  0.82899800  1
  C  C209  1  0.61079400  0.41226200  0.86401600  1
  C  C210  1  0.61118300  0.36367400  0.84042800  1
  C  C211  1  0.62071200  0.35488100  0.78068700  1
  C  C212  1  0.70593000  0.49434000  0.75282100  1
  C  C213  1  0.73690300  0.51295500  0.70091200  1
  C  C214  1  0.77354800  0.47654700  0.67314300  1
  C  C215  1  0.79607800  0.48988100  0.62270400  1
  C  C216  1  0.78603700  0.54149100  0.59872300  1
  C  C217  1  0.75161500  0.57560700  0.62451300  1
  C  C218  1  0.72470700  0.55973800  0.67354200  1
  C  C219  1  0.30913200  0.30913200  0.69668600  1
  C  C220  1  0.61730400  0.40927900  0.58938100  1
  C  C221  1  0.64384700  0.36874600  0.56794700  1
  C  C222  1  0.67100500  0.33605400  0.60686400  1
  C  C223  1  0.67178300  0.34672000  0.66575900  1
  C  C224  1  0.64428800  0.38777700  0.68655100  1
  C  C225  1  0.62237500  0.42265900  0.64570300  1
  C  C226  1  0.88740900  0.58224200  0.24620200  1
  C  C227  1  0.88613100  0.53122600  0.27251100  1
  C  C228  1  0.89965400  0.52367000  0.32899800  1
  C  C229  1  0.90949700  0.56744700  0.36401600  1
  C  C230  1  0.90910800  0.61603500  0.34042800  1
  C  C231  1  0.89957900  0.62482800  0.28068700  1
  C  C232  1  0.81436100  0.48536900  0.25282100  1
  C  C233  1  0.78338800  0.46675400  0.20091200  1
  C  C234  1  0.74674300  0.50316200  0.17314300  1
  C  C235  1  0.72421300  0.48982800  0.12270400  1
  C  C236  1  0.73425400  0.43821800  0.09872300  1
  C  C237  1  0.76867500  0.40410200  0.12451300  1
  C  C238  1  0.79558400  0.41997100  0.17354200  1
  C  C239  1  0.94086800  0.03884100  0.94668600  1
  C  C240  1  0.30913200  0.17057700  0.69668600  1
  C  C241  1  0.90298600  0.57043000  0.08938100  1
  C  C242  1  0.87644400  0.61096300  0.06794700  1
  C  C243  1  0.84928600  0.64365500  0.10686400  1
  C  C244  1  0.84850800  0.63298900  0.16575900  1
  C  C245  1  0.87600300  0.59193200  0.18655100  1
  C  C246  1  0.89791600  0.55705000  0.14570300  1
  C  C247  1  0.35253300  0.11711800  0.50379800  1
  C  C248  1  0.30151700  0.11584100  0.47748900  1
  C  C249  1  0.29396100  0.12936300  0.42100200  1
  C  C250  1  0.33773800  0.13920600  0.38598400  1
  C  C251  1  0.38632600  0.13881700  0.40957200  1
  C  C252  1  0.39511900  0.12928800  0.46931300  1
  C  C253  1  0.25566000  0.04407000  0.49717900  1
  C  C254  1  0.23704500  0.01309700  0.54908800  1
  C  C255  1  0.27345300  0.97645200  0.57685700  1
  C  C256  1  0.21115900  0.17057700  0.80331400  1
  C  C257  1  0.26011900  0.95392200  0.62729600  1
  C  C258  1  0.20850900  0.96396300  0.65127700  1
  C  C259  1  0.17439300  0.99838500  0.62548700  1
  C  C260  1  0.19026200  0.02529300  0.57645800  1
  C  C261  1  0.34072100  0.13269600  0.66061900  1
  C  C262  1  0.38125400  0.10615300  0.68205300  1
  C  C263  1  0.41394600  0.07899500  0.64313600  1
  C  C264  1  0.40328000  0.07821700  0.58424100  1
  C  C265  1  0.36222300  0.10571200  0.56344900  1
  C  C266  1  0.32734100  0.12762500  0.60429700  1
  C  C267  1  0.16775800  0.86259100  0.00379800  1
  C  C268  1  0.21877400  0.86386900  0.97748900  1
  C  C269  1  0.22633000  0.85034600  0.92100200  1
  C  C270  1  0.18255300  0.84050300  0.88598400  1
  C  C271  1  0.13396500  0.84089200  0.90957200  1
  C  C272  1  0.12517200  0.85042100  0.96931300  1
  C  C273  1  0.26463100  0.93563900  0.99717900  1
  C  C274  1  0.28324600  0.96661200  0.04908800  1
  C  C275  1  0.24683800  0.00325700  0.07685700  1
  C  C276  1  0.26017200  0.02578700  0.12729600  1
  C  C277  1  0.31178200  0.01574600  0.15127700  1
  C  C278  1  0.34589800  0.98132500  0.12548700  1
  C  C279  1  0.33002900  0.95441600  0.07645800  1
  C  C280  1  0.17957000  0.84701400  0.16061900  1
  C  C281  1  0.71115900  0.30913200  0.69668600  1
  C  C282  1  0.13903700  0.87355600  0.18205300  1
  C  C283  1  0.10634500  0.90071400  0.14313600  1
  C  C284  1  0.11701100  0.90149200  0.08424100  1
  C  C285  1  0.15806800  0.87399700  0.06344900  1
  C  C286  1  0.19295000  0.85208400  0.10429700  1
  C  C287  1  0.88740900  0.39746700  0.75379800  1
  C  C288  1  0.88613100  0.44848300  0.72748900  1
  C  C289  1  0.89965400  0.45603900  0.67100200  1
  C  C290  1  0.90949700  0.41226200  0.63598400  1
  C  C291  1  0.90910800  0.36367400  0.65957200  1
  C  C292  1  0.89957900  0.35488100  0.71931300  1
  C  C293  1  0.81436100  0.49434000  0.74717900  1
  C  C294  1  0.78338800  0.51295500  0.79908800  1
  C  C295  1  0.74674300  0.47654700  0.82685700  1
  C  C296  1  0.72421300  0.48988100  0.87729600  1
  C  C297  1  0.73425400  0.54149100  0.90127700  1
  C  C298  1  0.76867500  0.57560700  0.87548700  1
  C  C299  1  0.79558400  0.55973800  0.82645800  1
  C  C300  1  0.80913200  0.30913200  0.80331400  1
  C  C301  1  0.90298600  0.40927900  0.91061900  1
  C  C302  1  0.87644400  0.36874600  0.93205300  1
  C  C303  1  0.84928600  0.33605400  0.89313600  1
  C  C304  1  0.84850800  0.34672000  0.83424100  1
  C  C305  1  0.87600300  0.38777700  0.81344900  1
  C  C306  1  0.89791600  0.42265900  0.85429700  1
  C  C307  1  0.63288200  0.58224200  0.25379800  1
  C  C308  1  0.63415900  0.53122600  0.22748900  1
  C  C309  1  0.62063700  0.52367000  0.17100200  1
  C  C310  1  0.61079400  0.56744700  0.13598400  1
  C  C311  1  0.61118300  0.61603500  0.15957200  1
  C  C312  1  0.62071200  0.62482800  0.21931300  1
  C  C313  1  0.70593000  0.48536900  0.24717900  1
  C  C314  1  0.73690300  0.46675400  0.29908800  1
  C  C315  1  0.77354800  0.50316200  0.32685700  1
  C  C316  1  0.79607800  0.48982800  0.37729600  1
  C  C317  1  0.78603700  0.43821800  0.40127700  1
  C  C318  1  0.75161500  0.40410200  0.37548700  1
  C  C319  1  0.72470700  0.41997100  0.32645800  1
  C  C320  1  0.80913200  0.17057700  0.80331400  1
  C  C321  1  0.61730400  0.57043000  0.41061900  1
  C  C322  1  0.64384700  0.61096300  0.43205300  1
  C  C323  1  0.67100500  0.64365500  0.39313600  1
  C  C324  1  0.67178300  0.63298900  0.33424100  1
  C  C325  1  0.64428800  0.59193200  0.31344900  1
  C  C326  1  0.62237500  0.55705000  0.35429700  1
  C  C327  1  0.71115900  0.17057700  0.69668600  1
  C  C328  1  0.80913200  0.67057700  0.19668600  1
  C  C329  1  0.71115900  0.67057700  0.30331400  1
  C  C330  1  0.71115900  0.80913200  0.30331400  1
  C  C331  1  0.07942300  0.03884100  0.94668600  1
  C  C332  1  0.80913200  0.80913200  0.19668600  1
  C  C333  1  0.44086800  0.44086800  0.55331400  1
  C  C334  1  0.44086800  0.53884100  0.44668600  1
  C  C335  1  0.57942300  0.53884100  0.44668600  1
  C  C336  1  0.57942300  0.44086800  0.55331400  1
  O  O1  1  0.06266700  0.99796900  0.92799500  1
  O  O2  1  0.06266700  0.49796900  0.07200500  1
  O  O3  1  0.06266700  0.55601600  0.00883200  1
  O  O4  1  0.06266700  0.42369300  0.99116800  1
  O  O5  1  0.06266700  0.48174000  0.92799500  1
  O  O6  1  0.95762400  0.42369300  0.99116800  1
  O  O7  1  0.95762400  0.48174000  0.92799500  1
  O  O8  1  0.95762400  0.49796900  0.07200500  1
  O  O9  1  0.95762400  0.55601600  0.00883200  1
  O  O10  1  0.75713800  0.88125100  0.00840900  1
  O  O11  1  0.06266700  0.98174000  0.07200500  1
  O  O12  1  0.06266700  0.92369300  0.00883200  1
  O  O13  1  0.76315300  0.09845800  0.50840900  1
  O  O14  1  0.56266700  0.99796900  0.57200500  1
  O  O15  1  0.56266700  0.05601600  0.50883200  1
  O  O16  1  0.36874900  0.48684700  0.25840900  1
  O  O17  1  0.56266700  0.92369300  0.49116800  1
  O  O18  1  0.56266700  0.98174000  0.42799500  1
  O  O19  1  0.15154200  0.49286200  0.75840900  1
  O  O20  1  0.45762400  0.92369300  0.49116800  1
  O  O21  1  0.45762400  0.98174000  0.42799500  1
  O  O22  1  0.76315300  0.88125100  0.49159100  1
  O  O23  1  0.45762400  0.99796900  0.57200500  1
  O  O24  1  0.45762400  0.05601600  0.50883200  1
  O  O25  1  0.75713800  0.09845800  0.99159100  1
  O  O26  1  0.95762400  0.98174000  0.07200500  1
  O  O27  1  0.26826000  0.68733300  0.32200500  1
  O  O28  1  0.32630700  0.68733300  0.25883200  1
  O  O29  1  0.15154200  0.48684700  0.24159100  1
  O  O30  1  0.19398400  0.68733300  0.24116800  1
  O  O31  1  0.25203100  0.68733300  0.17799500  1
  O  O32  1  0.36874900  0.49286200  0.74159100  1
  O  O33  1  0.19398400  0.79237600  0.24116800  1
  O  O34  1  0.25203100  0.79237600  0.17799500  1
  O  O35  1  0.26315300  0.09845800  0.99159100  1
  O  O36  1  0.95762400  0.92369300  0.00883200  1
  O  O37  1  0.26826000  0.79237600  0.32200500  1
  O  O38  1  0.32630700  0.79237600  0.25883200  1
  O  O39  1  0.25713800  0.88125100  0.49159100  1
  O  O40  1  0.25203100  0.29237600  0.82200500  1
  O  O41  1  0.65154200  0.49286200  0.74159100  1
  O  O42  1  0.19398400  0.29237600  0.75883200  1
  O  O43  1  0.32630700  0.29237600  0.74116800  1
  O  O44  1  0.26826000  0.29237600  0.67799500  1
  O  O45  1  0.86874900  0.48684700  0.24159100  1
  O  O46  1  0.32630700  0.18733300  0.74116800  1
  O  O47  1  0.26826000  0.18733300  0.67799500  1
  O  O48  1  0.25713800  0.09845800  0.50840900  1
  O  O49  1  0.25203100  0.18733300  0.82200500  1
  O  O50  1  0.19398400  0.18733300  0.75883200  1
  O  O51  1  0.26315300  0.88125100  0.00840900  1
  O  O52  1  0.75203100  0.29237600  0.67799500  1
  O  O53  1  0.86874900  0.49286200  0.75840900  1
  O  O54  1  0.95762400  0.05601600  0.99116800  1
  O  O55  1  0.69398400  0.29237600  0.74116800  1
  O  O56  1  0.82630700  0.29237600  0.75883200  1
  O  O57  1  0.65154200  0.48684700  0.25840900  1
  O  O58  1  0.76826000  0.29237600  0.82200500  1
  O  O59  1  0.82630700  0.18733300  0.75883200  1
  O  O60  1  0.76826000  0.18733300  0.82200500  1
  O  O61  1  0.75203100  0.18733300  0.67799500  1
  O  O62  1  0.69398400  0.18733300  0.74116800  1
  O  O63  1  0.95762400  0.99796900  0.92799500  1
  O  O64  1  0.76826000  0.68733300  0.17799500  1
  O  O65  1  0.82630700  0.68733300  0.24116800  1
  O  O66  1  0.69398400  0.68733300  0.25883200  1
  O  O67  1  0.75203100  0.68733300  0.32200500  1
  O  O68  1  0.69398400  0.79237600  0.25883200  1
  O  O69  1  0.75203100  0.79237600  0.32200500  1
  O  O70  1  0.76826000  0.79237600  0.17799500  1
  O  O71  1  0.82630700  0.79237600  0.24116800  1
  O  O72  1  0.45762400  0.48174000  0.57200500  1
  O  O73  1  0.45762400  0.42369300  0.50883200  1
  O  O74  1  0.06266700  0.05601600  0.99116800  1
  O  O75  1  0.45762400  0.55601600  0.49116800  1
  O  O76  1  0.45762400  0.49796900  0.42799500  1
  O  O77  1  0.56266700  0.55601600  0.49116800  1
  O  O78  1  0.56266700  0.49796900  0.42799500  1
  O  O79  1  0.56266700  0.48174000  0.57200500  1
  O  O80  1  0.56266700  0.42369300  0.50883200  1
  F  F1  1  0.69740900  0.03698900  0.20161700  1
  F  F2  1  0.82288200  0.94272000  0.70161700  1
  F  F3  1  0.21301100  0.42711800  0.45161700  1
  F  F4  1  0.30728000  0.55259100  0.95161700  1
  F  F5  1  0.82288200  0.03698900  0.29838300  1
  F  F6  1  0.69740900  0.94272000  0.79838300  1
  F  F7  1  0.30728000  0.42711800  0.04838300  1
  F  F8  1  0.21301100  0.55259100  0.54838300  1
  F  F9  1  0.32288200  0.94272000  0.79838300  1
  F  F10  1  0.19740900  0.03698900  0.29838300  1
  F  F11  1  0.80728000  0.55259100  0.54838300  1
  F  F12  1  0.71301100  0.42711800  0.04838300  1
  F  F13  1  0.19740900  0.94272000  0.70161700  1
  F  F14  1  0.32288200  0.03698900  0.20161700  1
  F  F15  1  0.71301100  0.55259100  0.95161700  1
  F  F16  1  0.80728000  0.42711800  0.45161700  1
