# generated using pymatgen
data_CuH13C14NO5
_symmetry_space_group_name_H-M   'P 1'
_cell_length_a   25.85980000
_cell_length_b   25.85980000
_cell_length_c   23.77050000
_cell_angle_alpha   90.00000000
_cell_angle_beta   90.00000000
_cell_angle_gamma   90.00000000
_symmetry_Int_Tables_number   1
_chemical_formula_structural   CuH13C14NO5
_chemical_formula_sum   'Cu16 H208 C224 N16 O80'
_cell_volume   15896.02878070
_cell_formula_units_Z   16
loop_
 _symmetry_equiv_pos_site_id
 _symmetry_equiv_pos_as_xyz
  1  'x, y, z'
loop_
 _atom_site_type_symbol
 _atom_site_label
 _atom_site_symmetry_multiplicity
 _atom_site_fract_x
 _atom_site_fract_y
 _atom_site_fract_z
 _atom_site_occupancy
  Cu  Cu1  1  0.01009900  0.95359800  0.96050600  1
  Cu  Cu2  1  0.01009900  0.02620400  0.03949400  1
  Cu  Cu3  1  0.51009900  0.02620400  0.46050600  1
  Cu  Cu4  1  0.51009900  0.95359800  0.53949400  1
  Cu  Cu5  1  0.29640200  0.73990100  0.21050600  1
  Cu  Cu6  1  0.22379600  0.73990100  0.28949400  1
  Cu  Cu7  1  0.22379600  0.23990100  0.71050600  1
  Cu  Cu8  1  0.29640200  0.23990100  0.78949400  1
  Cu  Cu9  1  0.72379600  0.23990100  0.78949400  1
  Cu  Cu10  1  0.79640200  0.23990100  0.71050600  1
  Cu  Cu11  1  0.79640200  0.73990100  0.28949400  1
  Cu  Cu12  1  0.72379600  0.73990100  0.21050600  1
  Cu  Cu13  1  0.51009900  0.45359800  0.46050600  1
  Cu  Cu14  1  0.51009900  0.52620400  0.53949400  1
  Cu  Cu15  1  0.01009900  0.52620400  0.96050600  1
  Cu  Cu16  1  0.01009900  0.45359800  0.03949400  1
  H  H1  1  0.88592800  0.90320900  0.98174200  1
  H  H2  1  0.93508500  0.94191100  0.16826500  1
  H  H3  1  0.88255100  0.88526500  0.22961400  1
  H  H4  1  0.80822200  0.81812700  0.08492900  1
  H  H5  1  0.83446700  0.89391700  0.89670500  1
  H  H6  1  0.88348200  0.78692400  0.89996600  1
  H  H7  1  0.91224100  0.84657500  0.89308600  1
  H  H8  1  0.87534700  0.78427200  0.80478500  1
  H  H9  1  0.88483600  0.85273200  0.80021600  1
  H  H10  1  0.78735900  0.78735900  0.80107000  1
  H  H11  1  0.78861700  0.86040200  0.78984900  1
  H  H12  1  0.75289900  0.86600300  0.88281200  1
  H  H13  1  0.76834200  0.79865000  0.88972500  1
  H  H14  1  0.63427000  0.07659300  0.48174200  1
  H  H15  1  0.58511300  0.03789100  0.66826500  1
  H  H16  1  0.63764700  0.09453700  0.72961400  1
  H  H17  1  0.71197600  0.16167500  0.58492900  1
  H  H18  1  0.68573000  0.08588500  0.39670500  1
  H  H19  1  0.63671600  0.19287800  0.39996600  1
  H  H20  1  0.60795600  0.13322700  0.39308600  1
  H  H21  1  0.64485100  0.19553000  0.30478500  1
  H  H22  1  0.63536100  0.12707000  0.30021600  1
  H  H23  1  0.73283900  0.19244300  0.30107000  1
  H  H24  1  0.73158100  0.11940000  0.28984900  1
  H  H25  1  0.76729900  0.11379900  0.38281200  1
  H  H26  1  0.75185600  0.18115200  0.38972500  1
  H  H27  1  0.34679100  0.61573000  0.23174200  1
  H  H28  1  0.30808900  0.66488700  0.41826500  1
  H  H29  1  0.36473500  0.61235300  0.47961400  1
  H  H30  1  0.43187300  0.53802400  0.33492900  1
  H  H31  1  0.35608300  0.56427000  0.14670500  1
  H  H32  1  0.46307600  0.61328400  0.14996600  1
  H  H33  1  0.40342500  0.64204400  0.14308600  1
  H  H34  1  0.46572800  0.60514900  0.05478500  1
  H  H35  1  0.39726800  0.61463900  0.05021600  1
  H  H36  1  0.46264100  0.51716100  0.05107000  1
  H  H37  1  0.38959800  0.51841900  0.03984900  1
  H  H38  1  0.38399700  0.48270100  0.13281200  1
  H  H39  1  0.45135000  0.49814400  0.13972500  1
  H  H40  1  0.17340700  0.36407200  0.73174200  1
  H  H41  1  0.21210900  0.31491500  0.91826500  1
  H  H42  1  0.15546300  0.36744900  0.97961400  1
  H  H43  1  0.08832500  0.44177800  0.83492900  1
  H  H44  1  0.16411500  0.41553300  0.64670500  1
  H  H45  1  0.05712200  0.36651800  0.64996600  1
  H  H46  1  0.11677300  0.33775900  0.64308600  1
  H  H47  1  0.05447000  0.37465300  0.55478500  1
  H  H48  1  0.12293000  0.36516400  0.55021600  1
  H  H49  1  0.05755700  0.46264100  0.55107000  1
  H  H50  1  0.13060000  0.46138300  0.53984900  1
  H  H51  1  0.13620100  0.49710100  0.63281200  1
  H  H52  1  0.06884800  0.48165800  0.63972500  1
  H  H53  1  0.63427000  0.90320900  0.51825800  1
  H  H54  1  0.58511300  0.94191100  0.33173500  1
  H  H55  1  0.63764700  0.88526500  0.27038600  1
  H  H56  1  0.71197600  0.81812700  0.41507100  1
  H  H57  1  0.68573000  0.89391700  0.60329500  1
  H  H58  1  0.63671600  0.78692400  0.60003400  1
  H  H59  1  0.60795600  0.84657500  0.60691400  1
  H  H60  1  0.64485100  0.78427200  0.69521500  1
  H  H61  1  0.63536100  0.85273200  0.69978400  1
  H  H62  1  0.73283900  0.78735900  0.69893000  1
  H  H63  1  0.73158100  0.86040200  0.71015100  1
  H  H64  1  0.76729900  0.86600300  0.61718800  1
  H  H65  1  0.75185600  0.79865000  0.61027500  1
  H  H66  1  0.88592800  0.07659300  0.01825800  1
  H  H67  1  0.93508500  0.03789100  0.83173500  1
  H  H68  1  0.88255100  0.09453700  0.77038600  1
  H  H69  1  0.80822200  0.16167500  0.91507100  1
  H  H70  1  0.83446700  0.08588500  0.10329500  1
  H  H71  1  0.88348200  0.19287800  0.10003400  1
  H  H72  1  0.91224100  0.13322700  0.10691400  1
  H  H73  1  0.87534700  0.19553000  0.19521500  1
  H  H74  1  0.88483600  0.12707000  0.19978400  1
  H  H75  1  0.78735900  0.19244300  0.19893000  1
  H  H76  1  0.78861700  0.11940000  0.21015100  1
  H  H77  1  0.75289900  0.11379900  0.11718800  1
  H  H78  1  0.76834200  0.18115200  0.11027500  1
  H  H79  1  0.17340700  0.61573000  0.26825800  1
  H  H80  1  0.21210900  0.66488700  0.08173500  1
  H  H81  1  0.15546300  0.61235300  0.02038600  1
  H  H82  1  0.08832500  0.53802400  0.16507100  1
  H  H83  1  0.16411500  0.56427000  0.35329500  1
  H  H84  1  0.05712200  0.61328400  0.35003400  1
  H  H85  1  0.11677300  0.64204400  0.35691400  1
  H  H86  1  0.05447000  0.60514900  0.44521500  1
  H  H87  1  0.12293000  0.61463900  0.44978400  1
  H  H88  1  0.05755700  0.51716100  0.44893000  1
  H  H89  1  0.13060000  0.51841900  0.46015100  1
  H  H90  1  0.13620100  0.48270100  0.36718800  1
  H  H91  1  0.06884800  0.49814400  0.36027500  1
  H  H92  1  0.34679100  0.36407200  0.76825800  1
  H  H93  1  0.30808900  0.31491500  0.58173500  1
  H  H94  1  0.36473500  0.36744900  0.52038600  1
  H  H95  1  0.43187300  0.44177800  0.66507100  1
  H  H96  1  0.35608300  0.41553300  0.85329500  1
  H  H97  1  0.46307600  0.36651800  0.85003400  1
  H  H98  1  0.40342500  0.33775900  0.85691400  1
  H  H99  1  0.46572800  0.37465300  0.94521500  1
  H  H100  1  0.39726800  0.36516400  0.94978400  1
  H  H101  1  0.46264100  0.46264100  0.94893000  1
  H  H102  1  0.38959800  0.46138300  0.96015100  1
  H  H103  1  0.38399700  0.49710100  0.86718800  1
  H  H104  1  0.45135000  0.48165800  0.86027500  1
  H  H105  1  0.13427000  0.07659300  0.01825800  1
  H  H106  1  0.08511300  0.03789100  0.83173500  1
  H  H107  1  0.13764700  0.09453700  0.77038600  1
  H  H108  1  0.21197600  0.16167500  0.91507100  1
  H  H109  1  0.18573000  0.08588500  0.10329500  1
  H  H110  1  0.13671600  0.19287800  0.10003400  1
  H  H111  1  0.10795600  0.13322700  0.10691400  1
  H  H112  1  0.14485100  0.19553000  0.19521500  1
  H  H113  1  0.13536100  0.12707000  0.19978400  1
  H  H114  1  0.23283900  0.19244300  0.19893000  1
  H  H115  1  0.23158100  0.11940000  0.21015100  1
  H  H116  1  0.26729900  0.11379900  0.11718800  1
  H  H117  1  0.25185600  0.18115200  0.11027500  1
  H  H118  1  0.38592800  0.90320900  0.51825800  1
  H  H119  1  0.43508500  0.94191100  0.33173500  1
  H  H120  1  0.38255100  0.88526500  0.27038600  1
  H  H121  1  0.30822200  0.81812700  0.41507100  1
  H  H122  1  0.33446700  0.89391700  0.60329500  1
  H  H123  1  0.38348200  0.78692400  0.60003400  1
  H  H124  1  0.41224100  0.84657500  0.60691400  1
  H  H125  1  0.37534700  0.78427200  0.69521500  1
  H  H126  1  0.38483600  0.85273200  0.69978400  1
  H  H127  1  0.28735900  0.78735900  0.69893000  1
  H  H128  1  0.28861700  0.86040200  0.71015100  1
  H  H129  1  0.25289900  0.86600300  0.61718800  1
  H  H130  1  0.26834200  0.79865000  0.61027500  1
  H  H131  1  0.67340700  0.36407200  0.76825800  1
  H  H132  1  0.71210900  0.31491500  0.58173500  1
  H  H133  1  0.65546300  0.36744900  0.52038600  1
  H  H134  1  0.58832500  0.44177800  0.66507100  1
  H  H135  1  0.66411500  0.41553300  0.85329500  1
  H  H136  1  0.55712200  0.36651800  0.85003400  1
  H  H137  1  0.61677300  0.33775900  0.85691400  1
  H  H138  1  0.55447000  0.37465300  0.94521500  1
  H  H139  1  0.62293000  0.36516400  0.94978400  1
  H  H140  1  0.55755700  0.46264100  0.94893000  1
  H  H141  1  0.63060000  0.46138300  0.96015100  1
  H  H142  1  0.63620100  0.49710100  0.86718800  1
  H  H143  1  0.56884800  0.48165800  0.86027500  1
  H  H144  1  0.84679100  0.61573000  0.26825800  1
  H  H145  1  0.80808900  0.66488700  0.08173500  1
  H  H146  1  0.86473500  0.61235300  0.02038600  1
  H  H147  1  0.93187300  0.53802400  0.16507100  1
  H  H148  1  0.85608300  0.56427000  0.35329500  1
  H  H149  1  0.96307600  0.61328400  0.35003400  1
  H  H150  1  0.90342500  0.64204400  0.35691400  1
  H  H151  1  0.96572800  0.60514900  0.44521500  1
  H  H152  1  0.89726800  0.61463900  0.44978400  1
  H  H153  1  0.96264100  0.51716100  0.44893000  1
  H  H154  1  0.88959800  0.51841900  0.46015100  1
  H  H155  1  0.88399700  0.48270100  0.36718800  1
  H  H156  1  0.95135000  0.49814400  0.36027500  1
  H  H157  1  0.38592800  0.07659300  0.48174200  1
  H  H158  1  0.43508500  0.03789100  0.66826500  1
  H  H159  1  0.38255100  0.09453700  0.72961400  1
  H  H160  1  0.30822200  0.16167500  0.58492900  1
  H  H161  1  0.33446700  0.08588500  0.39670500  1
  H  H162  1  0.38348200  0.19287800  0.39996600  1
  H  H163  1  0.41224100  0.13322700  0.39308600  1
  H  H164  1  0.37534700  0.19553000  0.30478500  1
  H  H165  1  0.38483600  0.12707000  0.30021600  1
  H  H166  1  0.28735900  0.19244300  0.30107000  1
  H  H167  1  0.28861700  0.11940000  0.28984900  1
  H  H168  1  0.25289900  0.11379900  0.38281200  1
  H  H169  1  0.26834200  0.18115200  0.38972500  1
  H  H170  1  0.13427000  0.90320900  0.98174200  1
  H  H171  1  0.08511300  0.94191100  0.16826500  1
  H  H172  1  0.13764700  0.88526500  0.22961400  1
  H  H173  1  0.21197600  0.81812700  0.08492900  1
  H  H174  1  0.18573000  0.89391700  0.89670500  1
  H  H175  1  0.13671600  0.78692400  0.89996600  1
  H  H176  1  0.10795600  0.84657500  0.89308600  1
  H  H177  1  0.14485100  0.78427200  0.80478500  1
  H  H178  1  0.13536100  0.85273200  0.80021600  1
  H  H179  1  0.23283900  0.78735900  0.80107000  1
  H  H180  1  0.23158100  0.86040200  0.78984900  1
  H  H181  1  0.26729900  0.86600300  0.88281200  1
  H  H182  1  0.25185600  0.79865000  0.88972500  1
  H  H183  1  0.84679100  0.36407200  0.73174200  1
  H  H184  1  0.80808900  0.31491500  0.91826500  1
  H  H185  1  0.86473500  0.36744900  0.97961400  1
  H  H186  1  0.93187300  0.44177800  0.83492900  1
  H  H187  1  0.85608300  0.41553300  0.64670500  1
  H  H188  1  0.96307600  0.36651800  0.64996600  1
  H  H189  1  0.90342500  0.33775900  0.64308600  1
  H  H190  1  0.96572800  0.37465300  0.55478500  1
  H  H191  1  0.89726800  0.36516400  0.55021600  1
  H  H192  1  0.96264100  0.46264100  0.55107000  1
  H  H193  1  0.88959800  0.46138300  0.53984900  1
  H  H194  1  0.88399700  0.49710100  0.63281200  1
  H  H195  1  0.95135000  0.48165800  0.63972500  1
  H  H196  1  0.67340700  0.61573000  0.23174200  1
  H  H197  1  0.71210900  0.66488700  0.41826500  1
  H  H198  1  0.65546300  0.61235300  0.47961400  1
  H  H199  1  0.58832500  0.53802400  0.33492900  1
  H  H200  1  0.66411500  0.56427000  0.14670500  1
  H  H201  1  0.55712200  0.61328400  0.14996600  1
  H  H202  1  0.61677300  0.64204400  0.14308600  1
  H  H203  1  0.55447000  0.60514900  0.05478500  1
  H  H204  1  0.62293000  0.61463900  0.05021600  1
  H  H205  1  0.55755700  0.51716100  0.05107000  1
  H  H206  1  0.63060000  0.51841900  0.03984900  1
  H  H207  1  0.63620100  0.48270100  0.13281200  1
  H  H208  1  0.56884800  0.49814400  0.13972500  1
  C  C1  1  0.07905900  0.53866300  0.05304800  1
  C  C2  1  0.07905900  0.44113900  0.94695200  1
  C  C3  1  0.94113900  0.44113900  0.94695200  1
  C  C4  1  0.94113900  0.53866300  0.05304800  1
  C  C5  1  0.07905900  0.94113900  0.05304800  1
  C  C6  1  0.86481000  0.87689200  0.06268000  1
  C  C7  1  0.90192500  0.91061200  0.08869500  1
  C  C8  1  0.90786600  0.91264800  0.14997800  1
  C  C9  1  0.87789700  0.88219500  0.18316300  1
  C  C10  1  0.84091800  0.84954200  0.16081300  1
  C  C11  1  0.83348000  0.84769300  0.09929100  1
  C  C12  1  0.82406400  0.84819000  0.97200900  1
  C  C13  1  0.83055200  0.85404200  0.91006000  1
  C  C14  1  0.87782900  0.82624000  0.88388100  1
  C  C15  1  0.86301100  0.82180400  0.82288600  1
  C  C16  1  0.80451500  0.82671100  0.81750100  1
  C  C17  1  0.78513500  0.83671200  0.87841600  1
  C  C18  1  0.65538800  0.10291000  0.56268000  1
  C  C19  1  0.61827300  0.06919000  0.58869500  1
  C  C20  1  0.61233200  0.06715400  0.64997800  1
  C  C21  1  0.64230100  0.09760700  0.68316300  1
  C  C22  1  0.67928000  0.13026000  0.66081300  1
  C  C23  1  0.68671800  0.13210900  0.59929100  1
  C  C24  1  0.69613400  0.13161200  0.47200900  1
  C  C25  1  0.68964600  0.12576000  0.41006000  1
  C  C26  1  0.64236900  0.15356200  0.38388100  1
  C  C27  1  0.65718700  0.15799800  0.32288600  1
  C  C28  1  0.71568300  0.15309100  0.31750100  1
  C  C29  1  0.73506300  0.14309000  0.37841600  1
  C  C30  1  0.57905900  0.03866300  0.55304800  1
  C  C31  1  0.37310800  0.59461200  0.31268000  1
  C  C32  1  0.33938800  0.63172700  0.33869500  1
  C  C33  1  0.33735200  0.63766800  0.39997800  1
  C  C34  1  0.36780500  0.60769900  0.43316300  1
  C  C35  1  0.40045800  0.57072000  0.41081300  1
  C  C36  1  0.40230700  0.56328200  0.34929100  1
  C  C37  1  0.40181000  0.55386600  0.22200900  1
  C  C38  1  0.39595800  0.56035400  0.16006000  1
  C  C39  1  0.42376000  0.60763100  0.13388100  1
  C  C40  1  0.42819600  0.59281300  0.07288600  1
  C  C41  1  0.42328900  0.53431700  0.06750100  1
  C  C42  1  0.41328800  0.51493700  0.12841600  1
  C  C43  1  0.57905900  0.94113900  0.44695200  1
  C  C44  1  0.14709000  0.38519000  0.81268000  1
  C  C45  1  0.18081000  0.34807500  0.83869500  1
  C  C46  1  0.18284600  0.34213400  0.89997800  1
  C  C47  1  0.15239300  0.37210300  0.93316300  1
  C  C48  1  0.11974000  0.40908200  0.91081300  1
  C  C49  1  0.11789100  0.41652000  0.84929100  1
  C  C50  1  0.94113900  0.94113900  0.05304800  1
  C  C51  1  0.11838800  0.42593600  0.72200900  1
  C  C52  1  0.12424000  0.41944800  0.66006000  1
  C  C53  1  0.09643800  0.37217100  0.63388100  1
  C  C54  1  0.09200200  0.38698900  0.57288600  1
  C  C55  1  0.09690900  0.44548500  0.56750100  1
  C  C56  1  0.10691000  0.46486500  0.62841600  1
  C  C57  1  0.44113900  0.94113900  0.44695200  1
  C  C58  1  0.65538800  0.87689200  0.43732000  1
  C  C59  1  0.61827300  0.91061200  0.41130500  1
  C  C60  1  0.61233200  0.91264800  0.35002200  1
  C  C61  1  0.64230100  0.88219500  0.31683700  1
  C  C62  1  0.67928000  0.84954200  0.33918700  1
  C  C63  1  0.68671800  0.84769300  0.40070900  1
  C  C64  1  0.69613400  0.84819000  0.52799100  1
  C  C65  1  0.68964600  0.85404200  0.58994000  1
  C  C66  1  0.64236900  0.82624000  0.61611900  1
  C  C67  1  0.65718700  0.82180400  0.67711400  1
  C  C68  1  0.71568300  0.82671100  0.68249900  1
  C  C69  1  0.73506300  0.83671200  0.62158400  1
  C  C70  1  0.86481000  0.10291000  0.93732000  1
  C  C71  1  0.90192500  0.06919000  0.91130500  1
  C  C72  1  0.44113900  0.03866300  0.55304800  1
  C  C73  1  0.90786600  0.06715400  0.85002200  1
  C  C74  1  0.87789700  0.09760700  0.81683700  1
  C  C75  1  0.84091800  0.13026000  0.83918700  1
  C  C76  1  0.83348000  0.13210900  0.90070900  1
  C  C77  1  0.82406400  0.13161200  0.02799100  1
  C  C78  1  0.83055200  0.12576000  0.08994000  1
  C  C79  1  0.87782900  0.15356200  0.11611900  1
  C  C80  1  0.86301100  0.15799800  0.17711400  1
  C  C81  1  0.80451500  0.15309100  0.18249900  1
  C  C82  1  0.78513500  0.14309000  0.12158400  1
  C  C83  1  0.14709000  0.59461200  0.18732000  1
  C  C84  1  0.18081000  0.63172700  0.16130500  1
  C  C85  1  0.18284600  0.63766800  0.10002200  1
  C  C86  1  0.15239300  0.60769900  0.06683700  1
  C  C87  1  0.11974000  0.57072000  0.08918700  1
  C  C88  1  0.11789100  0.56328200  0.15070900  1
  C  C89  1  0.11838800  0.55386600  0.27799100  1
  C  C90  1  0.12424000  0.56035400  0.33994000  1
  C  C91  1  0.09643800  0.60763100  0.36611900  1
  C  C92  1  0.09200200  0.59281300  0.42711400  1
  C  C93  1  0.09690900  0.53431700  0.43249900  1
  C  C94  1  0.10691000  0.51493700  0.37158400  1
  C  C95  1  0.30886100  0.67094100  0.30304800  1
  C  C96  1  0.37310800  0.38519000  0.68732000  1
  C  C97  1  0.33938800  0.34807500  0.66130500  1
  C  C98  1  0.33735200  0.34213400  0.60002200  1
  C  C99  1  0.36780500  0.37210300  0.56683700  1
  C  C100  1  0.40045800  0.40908200  0.58918700  1
  C  C101  1  0.40230700  0.41652000  0.65070900  1
  C  C102  1  0.40181000  0.42593600  0.77799100  1
  C  C103  1  0.39595800  0.41944800  0.83994000  1
  C  C104  1  0.42376000  0.37217100  0.86611900  1
  C  C105  1  0.42819600  0.38698900  0.92711400  1
  C  C106  1  0.42328900  0.44548500  0.93249900  1
  C  C107  1  0.41328800  0.46486500  0.87158400  1
  C  C108  1  0.15538800  0.10291000  0.93732000  1
  C  C109  1  0.21133700  0.67094100  0.19695200  1
  C  C110  1  0.11827300  0.06919000  0.91130500  1
  C  C111  1  0.11233200  0.06715400  0.85002200  1
  C  C112  1  0.14230100  0.09760700  0.81683700  1
  C  C113  1  0.17928000  0.13026000  0.83918700  1
  C  C114  1  0.18671800  0.13210900  0.90070900  1
  C  C115  1  0.19613400  0.13161200  0.02799100  1
  C  C116  1  0.18964600  0.12576000  0.08994000  1
  C  C117  1  0.14236900  0.15356200  0.11611900  1
  C  C118  1  0.15718700  0.15799800  0.17711400  1
  C  C119  1  0.21568300  0.15309100  0.18249900  1
  C  C120  1  0.23506300  0.14309000  0.12158400  1
  C  C121  1  0.36481000  0.87689200  0.43732000  1
  C  C122  1  0.40192500  0.91061200  0.41130500  1
  C  C123  1  0.40786600  0.91264800  0.35002200  1
  C  C124  1  0.37789700  0.88219500  0.31683700  1
  C  C125  1  0.21133700  0.80886100  0.19695200  1
  C  C126  1  0.34091800  0.84954200  0.33918700  1
  C  C127  1  0.33348000  0.84769300  0.40070900  1
  C  C128  1  0.32406400  0.84819000  0.52799100  1
  C  C129  1  0.33055200  0.85404200  0.58994000  1
  C  C130  1  0.37782900  0.82624000  0.61611900  1
  C  C131  1  0.36301100  0.82180400  0.67711400  1
  C  C132  1  0.30451500  0.82671100  0.68249900  1
  C  C133  1  0.28513500  0.83671200  0.62158400  1
  C  C134  1  0.64709000  0.38519000  0.68732000  1
  C  C135  1  0.68081000  0.34807500  0.66130500  1
  C  C136  1  0.68284600  0.34213400  0.60002200  1
  C  C137  1  0.65239300  0.37210300  0.56683700  1
  C  C138  1  0.61974000  0.40908200  0.58918700  1
  C  C139  1  0.61789100  0.41652000  0.65070900  1
  C  C140  1  0.61838800  0.42593600  0.77799100  1
  C  C141  1  0.30886100  0.80886100  0.30304800  1
  C  C142  1  0.62424000  0.41944800  0.83994000  1
  C  C143  1  0.59643800  0.37217100  0.86611900  1
  C  C144  1  0.59200200  0.38698900  0.92711400  1
  C  C145  1  0.59690900  0.44548500  0.93249900  1
  C  C146  1  0.60691000  0.46486500  0.87158400  1
  C  C147  1  0.87310800  0.59461200  0.18732000  1
  C  C148  1  0.83938800  0.63172700  0.16130500  1
  C  C149  1  0.83735200  0.63766800  0.10002200  1
  C  C150  1  0.86780500  0.60769900  0.06683700  1
  C  C151  1  0.90045800  0.57072000  0.08918700  1
  C  C152  1  0.90230700  0.56328200  0.15070900  1
  C  C153  1  0.90181000  0.55386600  0.27799100  1
  C  C154  1  0.89595800  0.56035400  0.33994000  1
  C  C155  1  0.92376000  0.60763100  0.36611900  1
  C  C156  1  0.92819600  0.59281300  0.42711400  1
  C  C157  1  0.92328900  0.53431700  0.43249900  1
  C  C158  1  0.91328800  0.51493700  0.37158400  1
  C  C159  1  0.36481000  0.10291000  0.56268000  1
  C  C160  1  0.40192500  0.06919000  0.58869500  1
  C  C161  1  0.40786600  0.06715400  0.64997800  1
  C  C162  1  0.21133700  0.30886100  0.80304800  1
  C  C163  1  0.37789700  0.09760700  0.68316300  1
  C  C164  1  0.34091800  0.13026000  0.66081300  1
  C  C165  1  0.33348000  0.13210900  0.59929100  1
  C  C166  1  0.32406400  0.13161200  0.47200900  1
  C  C167  1  0.33055200  0.12576000  0.41006000  1
  C  C168  1  0.37782900  0.15356200  0.38388100  1
  C  C169  1  0.36301100  0.15799800  0.32288600  1
  C  C170  1  0.30451500  0.15309100  0.31750100  1
  C  C171  1  0.28513500  0.14309000  0.37841600  1
  C  C172  1  0.15538800  0.87689200  0.06268000  1
  C  C173  1  0.11827300  0.91061200  0.08869500  1
  C  C174  1  0.11233200  0.91264800  0.14997800  1
  C  C175  1  0.14230100  0.88219500  0.18316300  1
  C  C176  1  0.17928000  0.84954200  0.16081300  1
  C  C177  1  0.18671800  0.84769300  0.09929100  1
  C  C178  1  0.30886100  0.30886100  0.69695200  1
  C  C179  1  0.19613400  0.84819000  0.97200900  1
  C  C180  1  0.18964600  0.85404200  0.91006000  1
  C  C181  1  0.14236900  0.82624000  0.88388100  1
  C  C182  1  0.15718700  0.82180400  0.82288600  1
  C  C183  1  0.21568300  0.82671100  0.81750100  1
  C  C184  1  0.23506300  0.83671200  0.87841600  1
  C  C185  1  0.87310800  0.38519000  0.81268000  1
  C  C186  1  0.83938800  0.34807500  0.83869500  1
  C  C187  1  0.83735200  0.34213400  0.89997800  1
  C  C188  1  0.86780500  0.37210300  0.93316300  1
  C  C189  1  0.90045800  0.40908200  0.91081300  1
  C  C190  1  0.90230700  0.41652000  0.84929100  1
  C  C191  1  0.90181000  0.42593600  0.72200900  1
  C  C192  1  0.89595800  0.41944800  0.66006000  1
  C  C193  1  0.94113900  0.03866300  0.94695200  1
  C  C194  1  0.30886100  0.17094100  0.69695200  1
  C  C195  1  0.92376000  0.37217100  0.63388100  1
  C  C196  1  0.92819600  0.38698900  0.57288600  1
  C  C197  1  0.92328900  0.44548500  0.56750100  1
  C  C198  1  0.91328800  0.46486500  0.62841600  1
  C  C199  1  0.64709000  0.59461200  0.31268000  1
  C  C200  1  0.68081000  0.63172700  0.33869500  1
  C  C201  1  0.68284600  0.63766800  0.39997800  1
  C  C202  1  0.65239300  0.60769900  0.43316300  1
  C  C203  1  0.61974000  0.57072000  0.41081300  1
  C  C204  1  0.61789100  0.56328200  0.34929100  1
  C  C205  1  0.61838800  0.55386600  0.22200900  1
  C  C206  1  0.62424000  0.56035400  0.16006000  1
  C  C207  1  0.59643800  0.60763100  0.13388100  1
  C  C208  1  0.59200200  0.59281300  0.07288600  1
  C  C209  1  0.59690900  0.53431700  0.06750100  1
  C  C210  1  0.21133700  0.17094100  0.80304800  1
  C  C211  1  0.60691000  0.51493700  0.12841600  1
  C  C212  1  0.71133700  0.30886100  0.69695200  1
  C  C213  1  0.80886100  0.30886100  0.80304800  1
  C  C214  1  0.80886100  0.17094100  0.80304800  1
  C  C215  1  0.71133700  0.17094100  0.69695200  1
  C  C216  1  0.80886100  0.67094100  0.19695200  1
  C  C217  1  0.71133700  0.67094100  0.30304800  1
  C  C218  1  0.71133700  0.80886100  0.30304800  1
  C  C219  1  0.07905900  0.03866300  0.94695200  1
  C  C220  1  0.80886100  0.80886100  0.19695200  1
  C  C221  1  0.44113900  0.44113900  0.55304800  1
  C  C222  1  0.44113900  0.53866300  0.44695200  1
  C  C223  1  0.57905900  0.53866300  0.44695200  1
  C  C224  1  0.57905900  0.44113900  0.55304800  1
  N  N1  1  0.85939500  0.87657800  0.00249200  1
  N  N2  1  0.66080300  0.10322400  0.50249200  1
  N  N3  1  0.37342200  0.58919700  0.25249200  1
  N  N4  1  0.14677600  0.39060500  0.75249200  1
  N  N5  1  0.66080300  0.87657800  0.49750800  1
  N  N6  1  0.85939500  0.10322400  0.99750800  1
  N  N7  1  0.14677600  0.58919700  0.24750800  1
  N  N8  1  0.37342200  0.39060500  0.74750800  1
  N  N9  1  0.16080300  0.10322400  0.99750800  1
  N  N10  1  0.35939500  0.87657800  0.49750800  1
  N  N11  1  0.64677600  0.39060500  0.74750800  1
  N  N12  1  0.87342200  0.58919700  0.24750800  1
  N  N13  1  0.35939500  0.10322400  0.50249200  1
  N  N14  1  0.16080300  0.87657800  0.00249200  1
  N  N15  1  0.87342200  0.39060500  0.75249200  1
  N  N16  1  0.64677600  0.58919700  0.25249200  1
  O  O1  1  0.06237900  0.99797900  0.92835300  1
  O  O2  1  0.06237900  0.49797900  0.07164700  1
  O  O3  1  0.06237900  0.55575900  0.00878800  1
  O  O4  1  0.06237900  0.42404300  0.99121200  1
  O  O5  1  0.06237900  0.48182300  0.92835300  1
  O  O6  1  0.95781900  0.42404300  0.99121200  1
  O  O7  1  0.95781900  0.48182300  0.92835300  1
  O  O8  1  0.95781900  0.49797900  0.07164700  1
  O  O9  1  0.95781900  0.55575900  0.00878800  1
  O  O10  1  0.06237900  0.98182300  0.07164700  1
  O  O11  1  0.79311100  0.82153700  0.99728800  1
  O  O12  1  0.06237900  0.92404300  0.00878800  1
  O  O13  1  0.72708700  0.15826500  0.49728800  1
  O  O14  1  0.56237900  0.99797900  0.57164700  1
  O  O15  1  0.42846300  0.52291300  0.24728800  1
  O  O16  1  0.56237900  0.05575900  0.50878800  1
  O  O17  1  0.56237900  0.92404300  0.49121200  1
  O  O18  1  0.09173500  0.45688900  0.74728800  1
  O  O19  1  0.56237900  0.98182300  0.42835300  1
  O  O20  1  0.72708700  0.82153700  0.50271200  1
  O  O21  1  0.45781900  0.92404300  0.49121200  1
  O  O22  1  0.45781900  0.98182300  0.42835300  1
  O  O23  1  0.79311100  0.15826500  0.00271200  1
  O  O24  1  0.45781900  0.99797900  0.57164700  1
  O  O25  1  0.45781900  0.05575900  0.50878800  1
  O  O26  1  0.09173500  0.52291300  0.25271200  1
  O  O27  1  0.95781900  0.98182300  0.07164700  1
  O  O28  1  0.42846300  0.45688900  0.75271200  1
  O  O29  1  0.26817700  0.68762100  0.32164700  1
  O  O30  1  0.32595700  0.68762100  0.25878800  1
  O  O31  1  0.22708700  0.15826500  0.00271200  1
  O  O32  1  0.19424100  0.68762100  0.24121200  1
  O  O33  1  0.25202100  0.68762100  0.17835300  1
  O  O34  1  0.29311100  0.82153700  0.50271200  1
  O  O35  1  0.19424100  0.79218100  0.24121200  1
  O  O36  1  0.25202100  0.79218100  0.17835300  1
  O  O37  1  0.59173500  0.45688900  0.75271200  1
  O  O38  1  0.95781900  0.92404300  0.00878800  1
  O  O39  1  0.26817700  0.79218100  0.32164700  1
  O  O40  1  0.32595700  0.79218100  0.25878800  1
  O  O41  1  0.92846300  0.52291300  0.25271200  1
  O  O42  1  0.29311100  0.15826500  0.49728800  1
  O  O43  1  0.25202100  0.29218100  0.82164700  1
  O  O44  1  0.19424100  0.29218100  0.75878800  1
  O  O45  1  0.22708700  0.82153700  0.99728800  1
  O  O46  1  0.32595700  0.29218100  0.74121200  1
  O  O47  1  0.26817700  0.29218100  0.67835300  1
  O  O48  1  0.92846300  0.45688900  0.74728800  1
  O  O49  1  0.32595700  0.18762100  0.74121200  1
  O  O50  1  0.26817700  0.18762100  0.67835300  1
  O  O51  1  0.59173500  0.52291300  0.24728800  1
  O  O52  1  0.25202100  0.18762100  0.82164700  1
  O  O53  1  0.19424100  0.18762100  0.75878800  1
  O  O54  1  0.75202100  0.29218100  0.67835300  1
  O  O55  1  0.95781900  0.05575900  0.99121200  1
  O  O56  1  0.69424100  0.29218100  0.74121200  1
  O  O57  1  0.82595700  0.29218100  0.75878800  1
  O  O58  1  0.76817700  0.29218100  0.82164700  1
  O  O59  1  0.82595700  0.18762100  0.75878800  1
  O  O60  1  0.76817700  0.18762100  0.82164700  1
  O  O61  1  0.75202100  0.18762100  0.67835300  1
  O  O62  1  0.69424100  0.18762100  0.74121200  1
  O  O63  1  0.95781900  0.99797900  0.92835300  1
  O  O64  1  0.76817700  0.68762100  0.17835300  1
  O  O65  1  0.82595700  0.68762100  0.24121200  1
  O  O66  1  0.69424100  0.68762100  0.25878800  1
  O  O67  1  0.75202100  0.68762100  0.32164700  1
  O  O68  1  0.69424100  0.79218100  0.25878800  1
  O  O69  1  0.75202100  0.79218100  0.32164700  1
  O  O70  1  0.76817700  0.79218100  0.17835300  1
  O  O71  1  0.82595700  0.79218100  0.24121200  1
  O  O72  1  0.45781900  0.48182300  0.57164700  1
  O  O73  1  0.45781900  0.42404300  0.50878800  1
  O  O74  1  0.06237900  0.05575900  0.99121200  1
  O  O75  1  0.45781900  0.55575900  0.49121200  1
  O  O76  1  0.45781900  0.49797900  0.42835300  1
  O  O77  1  0.56237900  0.55575900  0.49121200  1
  O  O78  1  0.56237900  0.49797900  0.42835300  1
  O  O79  1  0.56237900  0.48182300  0.57164700  1
  O  O80  1  0.56237900  0.42404300  0.50878800  1
