# Generated by REPEAT Assigner based on pymatgen
data_DB13-lvt-Syn026442
_audit_creation_date              2022-05-24
_audit_creation_method            REPEAT_Assigner
_cell_length_a                    32.500400
_cell_length_b                    32.500400
_cell_length_c                    30.411200
_cell_angle_alpha                 90.000000
_cell_angle_beta                  90.000000
_cell_angle_gamma                 90.000000
_cell_volume                      32122.620696
_symmetry_space_group_name_H-M    P1
_symmetry_Int_Tables_number       1
loop_
    _symmetry_equiv_pos_site_id
    _symmetry_equiv_pos_as_xyz
    1  x,y,z
loop_
    _atom_site_type_symbol
    _atom_site_label
    _atom_site_fract_x
    _atom_site_fract_y
    _atom_site_fract_z
    _atom_type_partial_charge
    Br  Br1   0.703302  0.874661  0.950380  -0.023207
    Br  Br2   0.812769  0.109268  0.450380  -0.022432
    Br  Br3   0.375339  0.437231  0.200380  -0.029406
    Br  Br4   0.140732  0.546698  0.700380  -0.029851
    Br  Br5   0.812769  0.874661  0.549620  -0.023280
    Br  Br6   0.703302  0.109268  0.049620  -0.023427
    Br  Br7   0.140732  0.437231  0.299620  -0.029141
    Br  Br8   0.375339  0.546698  0.799620  -0.028566
    Br  Br9   0.312769  0.109268  0.049620  -0.022426
    Br  Br10  0.203302  0.874661  0.549620  -0.023208
    Br  Br11  0.640732  0.546698  0.799620  -0.029853
    Br  Br12  0.875339  0.437231  0.299620  -0.029406
    Br  Br13  0.203302  0.109268  0.450380  -0.023423
    Br  Br14  0.312769  0.874661  0.950380  -0.023280
    Br  Br15  0.875339  0.546698  0.700380  -0.028551
    Br  Br16  0.640732  0.437231  0.200380  -0.029143
    C   C1    0.062905  0.530763  0.041464  0.870231
    C   C2    0.062905  0.453166  0.958536  0.868177
    C   C3    0.953166  0.453166  0.958536  0.865255
    C   C4    0.953166  0.530763  0.041464  0.865394
    C   C5    0.062905  0.953166  0.041464  0.855023
    C   C6    0.858764  0.883395  0.148320  -0.050754
    C   C7    0.835484  0.846425  0.157825  -0.069578
    C   C8    0.824982  0.835388  0.200355  -0.307790
    C   C9    0.841626  0.857886  0.233326  0.535810
    C   C10   0.866318  0.891416  0.227318  -0.338630
    C   C11   0.874054  0.903528  0.184055  -0.093254
    C   C12   0.810590  0.860374  0.301952  0.053575
    C   C13   0.856748  0.889910  0.023612  0.293119
    C   C14   0.846537  0.879979  0.067497  -0.311262
    C   C15   0.868877  0.895329  0.103087  0.252322
    C   C16   0.900167  0.922729  0.093983  -0.272795
    C   C17   0.912666  0.928479  0.049430  -0.073413
    C   C18   0.889498  0.916700  0.014251  -0.195270
    C   C19   0.787578  0.886408  0.987610  0.246055
    C   C20   0.761303  0.866924  0.952773  -0.110313
    C   C21   0.780420  0.847656  0.916323  -0.199054
    C   C22   0.822558  0.841455  0.913263  0.232401
    C   C23   0.846313  0.855915  0.949382  -0.071700
    C   C24   0.831237  0.877811  0.987865  -0.128960
    C   C25   0.842510  0.820395  0.873525  -0.411815
    C   C26   0.657307  0.100534  0.648320  -0.048784
    C   C27   0.680587  0.137504  0.657825  -0.070475
    C   C28   0.691089  0.148541  0.700355  -0.306045
    C   C29   0.674445  0.126043  0.733326  0.536733
    C   C30   0.649753  0.092513  0.727318  -0.338612
    C   C31   0.642017  0.080401  0.684055  -0.093573
    C   C32   0.705481  0.123555  0.801952  0.052998
    C   C33   0.562905  0.030763  0.541464  0.857955
    C   C34   0.659323  0.094019  0.523612  0.290286
    C   C35   0.669534  0.103950  0.567497  -0.308882
    C   C36   0.647194  0.088600  0.603087  0.250123
    C   C37   0.615904  0.061200  0.593983  -0.273779
    C   C38   0.603405  0.055450  0.549430  -0.074776
    C   C39   0.626573  0.067229  0.514251  -0.191317
    C   C40   0.728493  0.097521  0.487610  0.248427
    C   C41   0.754768  0.117005  0.452773  -0.113221
    C   C42   0.735651  0.136273  0.416323  -0.196065
    C   C43   0.693513  0.142474  0.413263  0.228397
    C   C44   0.669758  0.128014  0.449382  -0.067335
    C   C45   0.684834  0.106118  0.487865  -0.131469
    C   C46   0.673561  0.163534  0.373525  -0.410060
    C   C47   0.562905  0.953166  0.458536  0.855028
    C   C48   0.366605  0.592693  0.398320  -0.051086
    C   C49   0.403575  0.569413  0.407825  -0.087804
    C   C50   0.414612  0.558911  0.450355  -0.284650
    C   C51   0.392114  0.575555  0.483326  0.538672
    C   C52   0.358584  0.600247  0.477318  -0.354086
    C   C53   0.346472  0.607983  0.434055  -0.083876
    C   C54   0.389626  0.544519  0.551952  0.070205
    C   C55   0.953166  0.953166  0.041464  0.854595
    C   C56   0.360090  0.590677  0.273612  0.310567
    C   C57   0.370021  0.580466  0.317497  -0.325764
    C   C58   0.354671  0.602806  0.353087  0.267846
    C   C59   0.327271  0.634096  0.343983  -0.301048
    C   C60   0.321521  0.646595  0.299430  -0.041208
    C   C61   0.333300  0.623427  0.264251  -0.210197
    C   C62   0.363592  0.521507  0.237610  0.251329
    C   C63   0.383076  0.495232  0.202773  -0.102169
    C   C64   0.402344  0.514349  0.166323  -0.216805
    C   C65   0.408545  0.556487  0.163263  0.263497
    C   C66   0.394085  0.580242  0.199382  -0.076484
    C   C67   0.372189  0.565166  0.237865  -0.146028
    C   C68   0.453166  0.953166  0.458536  0.854578
    C   C69   0.429605  0.576439  0.123525  -0.455430
    C   C70   0.149466  0.391236  0.898320  -0.052323
    C   C71   0.112496  0.414516  0.907825  -0.083480
    C   C72   0.101459  0.425018  0.950355  -0.290610
    C   C73   0.123957  0.408374  0.983326  0.545085
    C   C74   0.157487  0.383682  0.977318  -0.357497
    C   C75   0.169599  0.375946  0.934055  -0.083650
    C   C76   0.126445  0.439410  0.051952  0.062228
    C   C77   0.155981  0.393252  0.773612  0.311462
    C   C78   0.146050  0.403463  0.817497  -0.324734
    C   C79   0.161400  0.381123  0.853087  0.267003
    C   C80   0.188800  0.349833  0.843983  -0.297608
    C   C81   0.194550  0.337334  0.799430  -0.045137
    C   C82   0.182771  0.360502  0.764251  -0.208972
    C   C83   0.453166  0.030763  0.541464  0.853941
    C   C84   0.152479  0.462422  0.737610  0.251744
    C   C85   0.132995  0.488697  0.702773  -0.100814
    C   C86   0.113727  0.469580  0.666323  -0.215282
    C   C87   0.107526  0.427442  0.663263  0.255749
    C   C88   0.121986  0.403687  0.699382  -0.065729
    C   C89   0.143882  0.418763  0.737865  -0.153591
    C   C90   0.086466  0.407490  0.623525  -0.454163
    C   C91   0.657307  0.883395  0.351680  -0.048958
    C   C92   0.680587  0.846425  0.342175  -0.069004
    C   C93   0.691089  0.835388  0.299645  -0.310176
    C   C94   0.674445  0.857886  0.266674  0.541697
    C   C95   0.649753  0.891416  0.272682  -0.342204
    C   C96   0.642017  0.903528  0.315945  -0.092977
    C   C97   0.705481  0.860374  0.198048  0.051221
    C   C98   0.659323  0.889910  0.476388  0.288747
    C   C99   0.669534  0.879979  0.432503  -0.306079
    C   C100  0.647194  0.895329  0.396913  0.247772
    C   C101  0.615904  0.922729  0.406017  -0.272039
    C   C102  0.603405  0.928479  0.450570  -0.073072
    C   C103  0.626573  0.916700  0.485749  -0.191980
    C   C104  0.728493  0.886408  0.512390  0.248612
    C   C105  0.754768  0.866924  0.547227  -0.110965
    C   C106  0.735651  0.847656  0.583677  -0.196542
    C   C107  0.693513  0.841455  0.586737  0.224570
    C   C108  0.669758  0.855915  0.550618  -0.063296
    C   C109  0.684834  0.877811  0.512135  -0.134592
    C   C110  0.673561  0.820395  0.626475  -0.409582
    C   C111  0.296834  0.687095  0.291464  0.854028
    C   C112  0.858764  0.100534  0.851680  -0.050538
    C   C113  0.835484  0.137504  0.842175  -0.070781
    C   C114  0.824982  0.148541  0.799645  -0.308390
    C   C115  0.841626  0.126043  0.766674  0.539833
    C   C116  0.866318  0.092513  0.772682  -0.342188
    C   C117  0.874054  0.080401  0.815945  -0.091910
    C   C118  0.810590  0.123555  0.698048  0.060073
    C   C119  0.856748  0.094019  0.976388  0.291171
    C   C120  0.846537  0.103950  0.932503  -0.312869
    C   C121  0.868877  0.088600  0.896913  0.253101
    C   C122  0.900167  0.061200  0.906017  -0.275958
    C   C123  0.912666  0.055450  0.950570  -0.069691
    C   C124  0.889498  0.067229  0.985749  -0.192817
    C   C125  0.219237  0.687095  0.208536  0.852485
    C   C126  0.787578  0.097521  0.012390  0.246779
    C   C127  0.761303  0.117005  0.047227  -0.109540
    C   C128  0.780420  0.136273  0.083677  -0.200327
    C   C129  0.822558  0.142474  0.086737  0.229816
    C   C130  0.846313  0.128014  0.050618  -0.069328
    C   C131  0.831237  0.106118  0.012135  -0.130115
    C   C132  0.842510  0.163534  0.126475  -0.405509
    C   C133  0.149466  0.592693  0.101680  -0.053148
    C   C134  0.112496  0.569413  0.092175  -0.083988
    C   C135  0.101459  0.558911  0.049645  -0.288548
    C   C136  0.123957  0.575555  0.016674  0.538197
    C   C137  0.157487  0.600247  0.022682  -0.353688
    C   C138  0.169599  0.607983  0.065945  -0.083852
    C   C139  0.126445  0.544519  0.948048  0.066938
    C   C140  0.219237  0.796834  0.208536  0.858393
    C   C141  0.155981  0.590677  0.226388  0.305744
    C   C142  0.146050  0.580466  0.182503  -0.320430
    C   C143  0.161400  0.602806  0.146913  0.267064
    C   C144  0.188800  0.634096  0.156017  -0.300347
    C   C145  0.194550  0.646595  0.200570  -0.040041
    C   C146  0.182771  0.623427  0.235749  -0.210371
    C   C147  0.152479  0.521507  0.262390  0.251204
    C   C148  0.132995  0.495232  0.297227  -0.103425
    C   C149  0.113727  0.514349  0.333677  -0.213134
    C   C150  0.107526  0.556487  0.336737  0.259616
    C   C151  0.121986  0.580242  0.300618  -0.070288
    C   C152  0.143882  0.565166  0.262135  -0.147790
    C   C153  0.086466  0.576439  0.376475  -0.463321
    C   C154  0.366605  0.391236  0.601680  -0.046703
    C   C155  0.403575  0.414516  0.592175  -0.088391
    C   C156  0.414612  0.425018  0.549645  -0.283810
    C   C157  0.392114  0.408374  0.516674  0.539675
    C   C158  0.358584  0.383682  0.522682  -0.352754
    C   C159  0.296834  0.796834  0.291464  0.857740
    C   C160  0.346472  0.375946  0.565945  -0.088506
    C   C161  0.389626  0.439410  0.448048  0.068612
    C   C162  0.360090  0.393252  0.726388  0.310051
    C   C163  0.370021  0.403463  0.682503  -0.326348
    C   C164  0.354671  0.381123  0.646913  0.265576
    C   C165  0.327271  0.349833  0.656017  -0.297436
    C   C166  0.321521  0.337334  0.700570  -0.046037
    C   C167  0.333300  0.360502  0.735749  -0.205919
    C   C168  0.363592  0.462422  0.762390  0.251262
    C   C169  0.383076  0.488697  0.797227  -0.104112
    C   C170  0.402344  0.469580  0.833677  -0.212359
    C   C171  0.408545  0.427442  0.836737  0.257679
    C   C172  0.394085  0.403687  0.800618  -0.069915
    C   C173  0.372189  0.418763  0.762135  -0.148373
    C   C174  0.429605  0.407490  0.876475  -0.457761
    C   C175  0.157307  0.100534  0.851680  -0.048757
    C   C176  0.180587  0.137504  0.842175  -0.070577
    C   C177  0.191089  0.148541  0.799645  -0.305840
    C   C178  0.174445  0.126043  0.766674  0.536567
    C   C179  0.149753  0.092513  0.772682  -0.338546
    C   C180  0.142017  0.080401  0.815945  -0.093596
    C   C181  0.205481  0.123555  0.698048  0.052973
    C   C182  0.159323  0.094019  0.976388  0.290282
    C   C183  0.169534  0.103950  0.932503  -0.308883
    C   C184  0.219237  0.296834  0.791464  0.856481
    C   C185  0.147194  0.088600  0.896913  0.250131
    C   C186  0.115904  0.061200  0.906017  -0.273783
    C   C187  0.103405  0.055450  0.950570  -0.074779
    C   C188  0.126573  0.067229  0.985749  -0.191310
    C   C189  0.228493  0.097521  0.012390  0.248435
    C   C190  0.254768  0.117005  0.047227  -0.113253
    C   C191  0.235651  0.136273  0.083677  -0.196039
    C   C192  0.193513  0.142474  0.086737  0.228385
    C   C193  0.169758  0.128014  0.050618  -0.067329
    C   C194  0.184834  0.106118  0.012135  -0.131464
    C   C195  0.173561  0.163534  0.126475  -0.410067
    C   C196  0.358764  0.883395  0.351680  -0.050736
    C   C197  0.335484  0.846425  0.342175  -0.069609
    C   C198  0.324982  0.835388  0.299645  -0.307733
    C   C199  0.341626  0.857886  0.266674  0.535727
    C   C200  0.366318  0.891416  0.272682  -0.338578
    C   C201  0.374054  0.903528  0.315945  -0.093276
    C   C202  0.296834  0.296834  0.708536  0.854737
    C   C203  0.310590  0.860374  0.198048  0.053579
    C   C204  0.356748  0.889910  0.476388  0.293140
    C   C205  0.346537  0.879979  0.432503  -0.311263
    C   C206  0.368877  0.895329  0.396913  0.252324
    C   C207  0.400167  0.922729  0.406017  -0.272806
    C   C208  0.412666  0.928479  0.450570  -0.073384
    C   C209  0.389498  0.916700  0.485749  -0.195311
    C   C210  0.287578  0.886408  0.512390  0.246042
    C   C211  0.261303  0.866924  0.547227  -0.110303
    C   C212  0.280420  0.847656  0.583677  -0.199060
    C   C213  0.322558  0.841455  0.586737  0.232404
    C   C214  0.346313  0.855915  0.550618  -0.071705
    C   C215  0.331237  0.877811  0.512135  -0.128958
    C   C216  0.342510  0.820395  0.626475  -0.411812
    C   C217  0.953166  0.030763  0.958536  0.853933
    C   C218  0.296834  0.187095  0.708536  0.859012
    C   C219  0.649466  0.391236  0.601680  -0.052326
    C   C220  0.612496  0.414516  0.592175  -0.083465
    C   C221  0.601459  0.425018  0.549645  -0.290618
    C   C222  0.623957  0.408374  0.516674  0.545084
    C   C223  0.657487  0.383682  0.522682  -0.357487
    C   C224  0.669599  0.375946  0.565945  -0.083661
    C   C225  0.626445  0.439410  0.448048  0.062244
    C   C226  0.655981  0.393252  0.726388  0.311464
    C   C227  0.646050  0.403463  0.682503  -0.324712
    C   C228  0.661400  0.381123  0.646913  0.266974
    C   C229  0.688800  0.349833  0.656017  -0.297524
    C   C230  0.694550  0.337334  0.700570  -0.045277
    C   C231  0.682771  0.360502  0.735749  -0.208901
    C   C232  0.652479  0.462422  0.762390  0.251752
    C   C233  0.632995  0.488697  0.797227  -0.100814
    C   C234  0.613727  0.469580  0.833677  -0.215279
    C   C235  0.607526  0.427442  0.836737  0.255747
    C   C236  0.219237  0.187095  0.791464  0.854754
    C   C237  0.621986  0.403687  0.800618  -0.065700
    C   C238  0.643882  0.418763  0.762135  -0.153622
    C   C239  0.586466  0.407490  0.876475  -0.454243
    C   C240  0.866605  0.592693  0.101680  -0.051108
    C   C241  0.903575  0.569413  0.092175  -0.087784
    C   C242  0.914612  0.558911  0.049645  -0.284823
    C   C243  0.892114  0.575555  0.016674  0.538989
    C   C244  0.858584  0.600247  0.022682  -0.354231
    C   C245  0.846472  0.607983  0.065945  -0.083861
    C   C246  0.889626  0.544519  0.948048  0.068978
    C   C247  0.860090  0.590677  0.226388  0.310560
    C   C248  0.870021  0.580466  0.182503  -0.325772
    C   C249  0.854671  0.602806  0.146913  0.267870
    C   C250  0.827271  0.634096  0.156017  -0.301059
    C   C251  0.821521  0.646595  0.200570  -0.041213
    C   C252  0.833300  0.623427  0.235749  -0.210192
    C   C253  0.863592  0.521507  0.262390  0.251318
    C   C254  0.883076  0.495232  0.297227  -0.102164
    C   C255  0.902344  0.514349  0.333677  -0.216808
    C   C256  0.908545  0.556487  0.336737  0.263499
    C   C257  0.894085  0.580242  0.300618  -0.076491
    C   C258  0.872189  0.565166  0.262135  -0.146016
    C   C259  0.929605  0.576439  0.376475  -0.455425
    C   C260  0.719237  0.296834  0.708536  0.856566
    C   C261  0.358764  0.100534  0.648320  -0.050539
    C   C262  0.335484  0.137504  0.657825  -0.070810
    C   C263  0.324982  0.148541  0.700355  -0.308406
    C   C264  0.341626  0.126043  0.733326  0.539871
    C   C265  0.366318  0.092513  0.727318  -0.342183
    C   C266  0.374054  0.080401  0.684055  -0.091937
    C   C267  0.310590  0.123555  0.801952  0.060087
    C   C268  0.356748  0.094019  0.523612  0.291258
    C   C269  0.346537  0.103950  0.567497  -0.312912
    C   C270  0.368877  0.088600  0.603087  0.253206
    C   C271  0.400167  0.061200  0.593983  -0.276043
    C   C272  0.412666  0.055450  0.549430  -0.069711
    C   C273  0.389498  0.067229  0.514251  -0.192753
    C   C274  0.287578  0.097521  0.487610  0.247037
    C   C275  0.261303  0.117005  0.452773  -0.109646
    C   C276  0.280420  0.136273  0.416323  -0.200207
    C   C277  0.322558  0.142474  0.413263  0.229626
    C   C278  0.346313  0.128014  0.449382  -0.069044
    C   C279  0.331237  0.106118  0.487865  -0.130495
    C   C280  0.796834  0.296834  0.791464  0.854797
    C   C281  0.342510  0.163534  0.373525  -0.405460
    C   C282  0.157307  0.883395  0.148320  -0.048938
    C   C283  0.180587  0.846425  0.157825  -0.069023
    C   C284  0.191089  0.835388  0.200355  -0.310141
    C   C285  0.174445  0.857886  0.233326  0.541666
    C   C286  0.149753  0.891416  0.227318  -0.342190
    C   C287  0.142017  0.903528  0.184055  -0.092993
    C   C288  0.205481  0.860374  0.301952  0.051160
    C   C289  0.159323  0.889910  0.023612  0.288741
    C   C290  0.169534  0.879979  0.067497  -0.306085
    C   C291  0.147194  0.895329  0.103087  0.247765
    C   C292  0.115904  0.922729  0.093983  -0.272029
    C   C293  0.103405  0.928479  0.049430  -0.073083
    C   C294  0.126573  0.916700  0.014251  -0.191957
    C   C295  0.796834  0.187095  0.791464  0.859125
    C   C296  0.228493  0.886408  0.987610  0.248626
    C   C297  0.254768  0.866924  0.952773  -0.110973
    C   C298  0.235651  0.847656  0.916323  -0.196536
    C   C299  0.193513  0.841455  0.913263  0.224562
    C   C300  0.169758  0.855915  0.949382  -0.063286
    C   C301  0.184834  0.877811  0.987865  -0.134603
    C   C302  0.173561  0.820395  0.873525  -0.409571
    C   C303  0.866605  0.391236  0.898320  -0.046681
    C   C304  0.903575  0.414516  0.907825  -0.088386
    C   C305  0.914612  0.425018  0.950355  -0.283759
    C   C306  0.892114  0.408374  0.983326  0.539611
    C   C307  0.858584  0.383682  0.977318  -0.352725
    C   C308  0.846472  0.375946  0.934055  -0.088535
    C   C309  0.889626  0.439410  0.051952  0.068566
    C   C310  0.719237  0.187095  0.708536  0.854853
    C   C311  0.860090  0.393252  0.773612  0.310012
    C   C312  0.870021  0.403463  0.817497  -0.326299
    C   C313  0.854671  0.381123  0.853087  0.265534
    C   C314  0.827271  0.349833  0.843983  -0.297411
    C   C315  0.821521  0.337334  0.799430  -0.046080
    C   C316  0.833300  0.360502  0.764251  -0.205859
    C   C317  0.863592  0.462422  0.737610  0.251419
    C   C318  0.883076  0.488697  0.702773  -0.104328
    C   C319  0.902344  0.469580  0.666323  -0.211996
    C   C320  0.908545  0.427442  0.663263  0.257371
    C   C321  0.894085  0.403687  0.699382  -0.069663
    C   C322  0.872189  0.418763  0.737865  -0.148547
    C   C323  0.929605  0.407490  0.623525  -0.458067
    C   C324  0.649466  0.592693  0.398320  -0.053142
    C   C325  0.612496  0.569413  0.407825  -0.083997
    C   C326  0.601459  0.558911  0.450355  -0.288542
    C   C327  0.623957  0.575555  0.483326  0.538197
    C   C328  0.657487  0.600247  0.477318  -0.353703
    C   C329  0.669599  0.607983  0.434055  -0.083847
    C   C330  0.626445  0.544519  0.551952  0.066930
    C   C331  0.655981  0.590677  0.273612  0.305759
    C   C332  0.646050  0.580466  0.317497  -0.320437
    C   C333  0.661400  0.602806  0.353087  0.267068
    C   C334  0.688800  0.634096  0.343983  -0.300354
    C   C335  0.694550  0.646595  0.299430  -0.040033
    C   C336  0.682771  0.623427  0.264251  -0.210389
    C   C337  0.796834  0.687095  0.208536  0.854043
    C   C338  0.652479  0.521507  0.237610  0.251198
    C   C339  0.632995  0.495232  0.202773  -0.103417
    C   C340  0.613727  0.514349  0.166323  -0.213139
    C   C341  0.607526  0.556487  0.163263  0.259623
    C   C342  0.621986  0.580242  0.199382  -0.070321
    C   C343  0.643882  0.565166  0.237865  -0.147778
    C   C344  0.586466  0.576439  0.123525  -0.463302
    C   C345  0.719237  0.687095  0.291464  0.852482
    C   C346  0.719237  0.796834  0.291464  0.858410
    C   C347  0.062905  0.030763  0.958536  0.857958
    C   C348  0.796834  0.796834  0.208536  0.857727
    C   C349  0.453166  0.453166  0.541464  0.865254
    C   C350  0.453166  0.530763  0.458536  0.865224
    C   C351  0.562905  0.530763  0.458536  0.870270
    C   C352  0.562905  0.453166  0.541464  0.868167
    Cl  Cl1   0.898437  0.840403  0.950474  -0.068919
    Cl  Cl2   0.617634  0.143526  0.450474  -0.069447
    Cl  Cl3   0.409597  0.632366  0.200474  -0.073492
    Cl  Cl4   0.106474  0.351563  0.700474  -0.075387
    Cl  Cl5   0.617634  0.840403  0.549526  -0.069388
    Cl  Cl6   0.898437  0.143526  0.049526  -0.068698
    Cl  Cl7   0.106474  0.632366  0.299526  -0.074486
    Cl  Cl8   0.409597  0.351563  0.799526  -0.075054
    Cl  Cl9   0.117634  0.143526  0.049526  -0.069447
    Cl  Cl10  0.398437  0.840403  0.549526  -0.068920
    Cl  Cl11  0.606474  0.351563  0.799526  -0.075399
    Cl  Cl12  0.909597  0.632366  0.299526  -0.073490
    Cl  Cl13  0.398437  0.143526  0.450474  -0.068726
    Cl  Cl14  0.117634  0.840403  0.950474  -0.069388
    Cl  Cl15  0.909597  0.351563  0.700474  -0.075066
    Cl  Cl16  0.606474  0.632366  0.200474  -0.074479
    Cu  Cu1   0.008036  0.963079  0.969130  0.999144
    Cu  Cu2   0.008036  0.020850  0.030870  0.998768
    Cu  Cu3   0.508036  0.020850  0.469130  0.998768
    Cu  Cu4   0.508036  0.963079  0.530870  0.999147
    Cu  Cu5   0.286921  0.741964  0.219130  1.013332
    Cu  Cu6   0.229150  0.741964  0.280870  1.014401
    Cu  Cu7   0.229150  0.241964  0.719130  1.014302
    Cu  Cu8   0.286921  0.241964  0.780870  1.013584
    Cu  Cu9   0.729150  0.241964  0.780870  1.014380
    Cu  Cu10  0.786921  0.241964  0.719130  1.013632
    Cu  Cu11  0.786921  0.741964  0.280870  1.013330
    Cu  Cu12  0.729150  0.741964  0.219130  1.014401
    Cu  Cu13  0.508036  0.463079  0.469130  1.038292
    Cu  Cu14  0.508036  0.520850  0.530870  1.036308
    Cu  Cu15  0.008036  0.520850  0.969130  1.036368
    Cu  Cu16  0.008036  0.463079  0.030870  1.038303
    H   H1    0.823338  0.828472  0.130049  0.095669
    H   H2    0.879590  0.909512  0.253778  0.179316
    H   H3    0.894320  0.931697  0.182667  0.124115
    H   H4    0.779318  0.852319  0.291261  0.019984
    H   H5    0.809016  0.893131  0.302215  -0.008528
    H   H6    0.816948  0.848821  0.333869  0.068915
    H   H7    0.821657  0.861775  0.072878  0.112994
    H   H8    0.917612  0.940885  0.118206  0.124968
    H   H9    0.898544  0.926165  0.980954  0.157018
    H   H10   0.738790  0.913735  0.016343  0.269103
    H   H11   0.783973  0.922752  0.044717  0.288798
    H   H12   0.760686  0.836102  0.887665  0.129294
    H   H13   0.854704  0.787761  0.883839  0.111423
    H   H14   0.820376  0.820376  0.845199  0.123200
    H   H15   0.867272  0.838711  0.858801  0.121384
    H   H16   0.692733  0.155457  0.630049  0.096452
    H   H17   0.636481  0.074417  0.753778  0.179486
    H   H18   0.621751  0.052232  0.682667  0.123856
    H   H19   0.736753  0.131610  0.791261  0.020272
    H   H20   0.707055  0.090798  0.802215  -0.008722
    H   H21   0.699123  0.135108  0.833869  0.069259
    H   H22   0.694414  0.122154  0.572878  0.112985
    H   H23   0.598459  0.043044  0.618206  0.125295
    H   H24   0.617527  0.057764  0.480954  0.155103
    H   H25   0.777281  0.070193  0.516343  0.269181
    H   H26   0.732098  0.061177  0.544717  0.287908
    H   H27   0.755385  0.147827  0.387665  0.128606
    H   H28   0.661367  0.196168  0.383839  0.110991
    H   H29   0.695695  0.163553  0.345199  0.123117
    H   H30   0.648799  0.145218  0.358801  0.120955
    H   H31   0.421528  0.557267  0.380049  0.099425
    H   H32   0.340488  0.613519  0.503778  0.181501
    H   H33   0.318303  0.628249  0.432667  0.121466
    H   H34   0.397681  0.513247  0.541261  0.017872
    H   H35   0.356869  0.542945  0.552215  -0.013895
    H   H36   0.401179  0.550877  0.583869  0.062137
    H   H37   0.388225  0.555586  0.322878  0.118022
    H   H38   0.309115  0.651541  0.368206  0.130250
    H   H39   0.323835  0.632473  0.230954  0.167385
    H   H40   0.336265  0.472719  0.266343  0.270236
    H   H41   0.327248  0.517902  0.294717  0.287843
    H   H42   0.413898  0.494615  0.137665  0.132722
    H   H43   0.462239  0.588633  0.133839  0.123364
    H   H44   0.429624  0.554305  0.095199  0.128048
    H   H45   0.411289  0.601201  0.108801  0.132153
    H   H46   0.094543  0.426662  0.880049  0.097478
    H   H47   0.175583  0.370410  0.003778  0.182135
    H   H48   0.197768  0.355680  0.932667  0.121931
    H   H49   0.118390  0.470682  0.041261  0.020753
    H   H50   0.159202  0.440984  0.052215  -0.012082
    H   H51   0.114892  0.433052  0.083869  0.064558
    H   H52   0.127846  0.428343  0.822878  0.117947
    H   H53   0.206956  0.332388  0.868206  0.128878
    H   H54   0.192236  0.351456  0.730954  0.167481
    H   H55   0.179807  0.511210  0.766343  0.269891
    H   H56   0.188823  0.466027  0.794717  0.287379
    H   H57   0.102173  0.489314  0.637665  0.132760
    H   H58   0.053832  0.395296  0.633839  0.123496
    H   H59   0.086447  0.429624  0.595199  0.128436
    H   H60   0.104782  0.382728  0.608801  0.131738
    H   H61   0.692733  0.828472  0.369951  0.095620
    H   H62   0.636481  0.909512  0.246222  0.180145
    H   H63   0.621751  0.931697  0.317333  0.124086
    H   H64   0.736753  0.852319  0.208739  0.020768
    H   H65   0.707055  0.893131  0.197785  -0.007959
    H   H66   0.699123  0.848821  0.166131  0.069418
    H   H67   0.694414  0.861775  0.427122  0.112078
    H   H68   0.598459  0.940885  0.381794  0.125051
    H   H69   0.617527  0.926165  0.519046  0.156056
    H   H70   0.777281  0.913735  0.483657  0.268724
    H   H71   0.732098  0.922752  0.455283  0.288185
    H   H72   0.755385  0.836102  0.612335  0.129229
    H   H73   0.661367  0.787761  0.616161  0.111100
    H   H74   0.695695  0.820376  0.654801  0.123418
    H   H75   0.648799  0.838711  0.641199  0.120777
    H   H76   0.823338  0.155457  0.869951  0.096646
    H   H77   0.879590  0.074417  0.746222  0.180385
    H   H78   0.894320  0.052232  0.817333  0.123992
    H   H79   0.779318  0.131610  0.708739  0.019176
    H   H80   0.809016  0.090798  0.697785  -0.011080
    H   H81   0.816948  0.135108  0.666131  0.067164
    H   H82   0.821657  0.122154  0.927122  0.114255
    H   H83   0.917612  0.043044  0.881794  0.125527
    H   H84   0.898544  0.057764  0.019046  0.155316
    H   H85   0.738790  0.070193  0.983657  0.268942
    H   H86   0.783973  0.061177  0.955283  0.288196
    H   H87   0.760686  0.147827  0.112335  0.129794
    H   H88   0.854704  0.196168  0.116161  0.109551
    H   H89   0.820376  0.163553  0.154801  0.121812
    H   H90   0.867272  0.145218  0.141199  0.119719
    H   H91   0.094543  0.557267  0.119951  0.097202
    H   H92   0.175583  0.613519  0.996222  0.181303
    H   H93   0.197768  0.628249  0.067333  0.121768
    H   H94   0.118390  0.513247  0.958739  0.019536
    H   H95   0.159202  0.542945  0.947785  -0.013028
    H   H96   0.114892  0.550877  0.916131  0.062892
    H   H97   0.127846  0.555586  0.177122  0.116878
    H   H98   0.206956  0.651541  0.131794  0.129960
    H   H99   0.192236  0.632473  0.269046  0.168802
    H   H100  0.179807  0.472719  0.233657  0.270518
    H   H101  0.188823  0.517902  0.205283  0.287901
    H   H102  0.102173  0.494615  0.362335  0.131778
    H   H103  0.053832  0.588633  0.366161  0.126332
    H   H104  0.086447  0.554305  0.404801  0.130881
    H   H105  0.104782  0.601201  0.391199  0.133658
    H   H106  0.421528  0.426662  0.619951  0.098436
    H   H107  0.340488  0.370410  0.496222  0.181317
    H   H108  0.318303  0.355680  0.567333  0.122642
    H   H109  0.397681  0.470682  0.458739  0.019349
    H   H110  0.356869  0.440984  0.447785  -0.013675
    H   H111  0.401179  0.433052  0.416131  0.062830
    H   H112  0.388225  0.428343  0.677122  0.118673
    H   H113  0.309115  0.332388  0.631794  0.129105
    H   H114  0.323835  0.351456  0.769046  0.166186
    H   H115  0.336265  0.511210  0.733657  0.270179
    H   H116  0.327248  0.466027  0.705283  0.287667
    H   H117  0.413898  0.489314  0.862335  0.131676
    H   H118  0.462239  0.395296  0.866161  0.124920
    H   H119  0.429624  0.429624  0.904801  0.129054
    H   H120  0.411289  0.382728  0.891199  0.132772
    H   H121  0.192733  0.155457  0.869951  0.096477
    H   H122  0.136481  0.074417  0.746222  0.179473
    H   H123  0.121751  0.052232  0.817333  0.123857
    H   H124  0.236753  0.131610  0.708739  0.020299
    H   H125  0.207055  0.090798  0.697785  -0.008717
    H   H126  0.199123  0.135108  0.666131  0.069257
    H   H127  0.194414  0.122154  0.927122  0.112981
    H   H128  0.098459  0.043044  0.881794  0.125295
    H   H129  0.117527  0.057764  0.019046  0.155097
    H   H130  0.277281  0.070193  0.983657  0.269183
    H   H131  0.232098  0.061177  0.955283  0.287905
    H   H132  0.255385  0.147827  0.112335  0.128603
    H   H133  0.161367  0.196168  0.116161  0.110993
    H   H134  0.195695  0.163553  0.154801  0.123119
    H   H135  0.148799  0.145218  0.141199  0.120957
    H   H136  0.323338  0.828472  0.369951  0.095667
    H   H137  0.379590  0.909512  0.246222  0.179305
    H   H138  0.394320  0.931697  0.317333  0.124116
    H   H139  0.279318  0.852319  0.208739  0.019971
    H   H140  0.309016  0.893131  0.197785  -0.008525
    H   H141  0.316948  0.848821  0.166131  0.068914
    H   H142  0.321657  0.861775  0.427122  0.112994
    H   H143  0.417612  0.940885  0.381794  0.124971
    H   H144  0.398544  0.926165  0.519046  0.157035
    H   H145  0.238790  0.913735  0.483657  0.269103
    H   H146  0.283973  0.922752  0.455283  0.288794
    H   H147  0.260686  0.836102  0.612335  0.129293
    H   H148  0.354704  0.787761  0.616161  0.111421
    H   H149  0.320376  0.820376  0.654801  0.123201
    H   H150  0.367272  0.838711  0.641199  0.121383
    H   H151  0.594543  0.426662  0.619951  0.097471
    H   H152  0.675583  0.370410  0.496222  0.182131
    H   H153  0.697768  0.355680  0.567333  0.121937
    H   H154  0.618390  0.470682  0.458739  0.020744
    H   H155  0.659202  0.440984  0.447785  -0.012086
    H   H156  0.614892  0.433052  0.416131  0.064555
    H   H157  0.627846  0.428343  0.677122  0.117944
    H   H158  0.706956  0.332388  0.631794  0.128853
    H   H159  0.692236  0.351456  0.769046  0.167465
    H   H160  0.679807  0.511210  0.733657  0.269895
    H   H161  0.688823  0.466027  0.705283  0.287375
    H   H162  0.602173  0.489314  0.862335  0.132759
    H   H163  0.553832  0.395296  0.866161  0.123537
    H   H164  0.586447  0.429624  0.904801  0.128456
    H   H165  0.604782  0.382728  0.891199  0.131756
    H   H166  0.921528  0.557267  0.119951  0.099423
    H   H167  0.840488  0.613519  0.996222  0.181533
    H   H168  0.818303  0.628249  0.067333  0.121478
    H   H169  0.897681  0.513247  0.958739  0.018136
    H   H170  0.856869  0.542945  0.947785  -0.013560
    H   H171  0.901179  0.550877  0.916131  0.062501
    H   H172  0.888225  0.555586  0.177122  0.118027
    H   H173  0.809115  0.651541  0.131794  0.130250
    H   H174  0.823835  0.632473  0.269046  0.167384
    H   H175  0.836265  0.472719  0.233657  0.270236
    H   H176  0.827248  0.517902  0.205283  0.287843
    H   H177  0.913898  0.494615  0.362335  0.132722
    H   H178  0.962239  0.588633  0.366161  0.123363
    H   H179  0.929624  0.554305  0.404801  0.128047
    H   H180  0.911289  0.601201  0.391199  0.132151
    H   H181  0.323338  0.155457  0.630049  0.096718
    H   H182  0.379590  0.074417  0.753778  0.180386
    H   H183  0.394320  0.052232  0.682667  0.123995
    H   H184  0.279318  0.131610  0.791261  0.019163
    H   H185  0.309016  0.090798  0.802215  -0.011085
    H   H186  0.316948  0.135108  0.833869  0.067164
    H   H187  0.321657  0.122154  0.572878  0.114177
    H   H188  0.417612  0.043044  0.618206  0.125551
    H   H189  0.398544  0.057764  0.480954  0.155296
    H   H190  0.238790  0.070193  0.516343  0.268945
    H   H191  0.283973  0.061177  0.544717  0.288238
    H   H192  0.260686  0.147827  0.387665  0.129778
    H   H193  0.354704  0.196168  0.383839  0.109546
    H   H194  0.320376  0.163553  0.345199  0.121810
    H   H195  0.367272  0.145218  0.358801  0.119701
    H   H196  0.192733  0.828472  0.130049  0.095626
    H   H197  0.136481  0.909512  0.253778  0.180147
    H   H198  0.121751  0.931697  0.182667  0.124088
    H   H199  0.236753  0.852319  0.291261  0.020809
    H   H200  0.207055  0.893131  0.302215  -0.007951
    H   H201  0.199123  0.848821  0.333869  0.069430
    H   H202  0.194414  0.861775  0.072878  0.112081
    H   H203  0.098459  0.940885  0.118206  0.125049
    H   H204  0.117527  0.926165  0.980954  0.156045
    H   H205  0.277281  0.913735  0.016343  0.268722
    H   H206  0.232098  0.922752  0.044717  0.288186
    H   H207  0.255385  0.836102  0.887665  0.129229
    H   H208  0.161367  0.787761  0.883839  0.111097
    H   H209  0.195695  0.820376  0.845199  0.123416
    H   H210  0.148799  0.838711  0.858801  0.120772
    H   H211  0.921528  0.426662  0.880049  0.098431
    H   H212  0.840488  0.370410  0.003778  0.181315
    H   H213  0.818303  0.355680  0.932667  0.122648
    H   H214  0.897681  0.470682  0.041261  0.019375
    H   H215  0.856869  0.440984  0.052215  -0.013665
    H   H216  0.901179  0.433052  0.083869  0.062838
    H   H217  0.888225  0.428343  0.822878  0.118664
    H   H218  0.809115  0.332388  0.868206  0.129107
    H   H219  0.823835  0.351456  0.730954  0.166173
    H   H220  0.836265  0.511210  0.766343  0.270182
    H   H221  0.827248  0.466027  0.794717  0.287667
    H   H222  0.913898  0.489314  0.637665  0.131611
    H   H223  0.962239  0.395296  0.633839  0.125050
    H   H224  0.929624  0.429624  0.595199  0.129158
    H   H225  0.911289  0.382728  0.608801  0.132845
    H   H226  0.594543  0.557267  0.380049  0.097201
    H   H227  0.675583  0.613519  0.503778  0.181308
    H   H228  0.697768  0.628249  0.432667  0.121768
    H   H229  0.618390  0.513247  0.541261  0.019546
    H   H230  0.659202  0.542945  0.552215  -0.013030
    H   H231  0.614892  0.550877  0.583869  0.062891
    H   H232  0.627846  0.555586  0.322878  0.116880
    H   H233  0.706956  0.651541  0.368206  0.129959
    H   H234  0.692236  0.632473  0.230954  0.168810
    H   H235  0.679807  0.472719  0.266343  0.270518
    H   H236  0.688823  0.517902  0.294717  0.287899
    H   H237  0.602173  0.494615  0.137665  0.131778
    H   H238  0.553832  0.588633  0.133839  0.126328
    H   H239  0.586447  0.554305  0.095199  0.130875
    H   H240  0.604782  0.601201  0.108801  0.133655
    N   N1    0.769183  0.917950  0.014212  -0.620488
    N   N2    0.746888  0.065979  0.514212  -0.620270
    N   N3    0.332050  0.503112  0.264212  -0.621341
    N   N4    0.184021  0.480817  0.764212  -0.620112
    N   N5    0.746888  0.917950  0.485788  -0.619452
    N   N6    0.769183  0.065979  0.985788  -0.619746
    N   N7    0.184021  0.503112  0.235788  -0.621291
    N   N8    0.332050  0.480817  0.735788  -0.621249
    N   N9    0.246888  0.065979  0.985788  -0.620267
    N   N10   0.269183  0.917950  0.485788  -0.620483
    N   N11   0.684021  0.480817  0.735788  -0.620116
    N   N12   0.832050  0.503112  0.235788  -0.621338
    N   N13   0.269183  0.065979  0.514212  -0.619824
    N   N14   0.246888  0.917950  0.014212  -0.619453
    N   N15   0.832050  0.480817  0.764212  -0.621266
    N   N16   0.684021  0.503112  0.264212  -0.621289
    O   O1    0.049634  0.998392  0.943998  -0.670276
    O   O2    0.049634  0.498392  0.056002  -0.689148
    O   O3    0.049634  0.544366  0.006869  -0.606184
    O   O4    0.049634  0.439563  0.993131  -0.606405
    O   O5    0.049634  0.485537  0.943998  -0.688068
    O   O6    0.966437  0.439563  0.993131  -0.606111
    O   O7    0.966437  0.485537  0.943998  -0.686670
    O   O8    0.966437  0.498392  0.056002  -0.688505
    O   O9    0.966437  0.544366  0.006869  -0.605726
    O   O10   0.840006  0.842084  0.274207  -0.344064
    O   O11   0.049634  0.985537  0.056002  -0.669564
    O   O12   0.049634  0.939563  0.006869  -0.625674
    O   O13   0.676065  0.141845  0.774207  -0.344854
    O   O14   0.549634  0.998392  0.556002  -0.670283
    O   O15   0.549634  0.044366  0.506869  -0.625586
    O   O16   0.407916  0.573935  0.524207  -0.341834
    O   O17   0.549634  0.939563  0.493131  -0.625681
    O   O18   0.549634  0.985537  0.443998  -0.669570
    O   O19   0.466437  0.939563  0.493131  -0.625219
    O   O20   0.108155  0.409994  0.024207  -0.341992
    O   O21   0.466437  0.985537  0.443998  -0.668351
    O   O22   0.466437  0.998392  0.556002  -0.669501
    O   O23   0.466437  0.044366  0.506869  -0.626458
    O   O24   0.676065  0.842084  0.225793  -0.345219
    O   O25   0.966437  0.985537  0.056002  -0.668360
    O   O26   0.264463  0.700366  0.306002  -0.678794
    O   O27   0.840006  0.141845  0.725793  -0.346294
    O   O28   0.310437  0.700366  0.256869  -0.659874
    O   O29   0.205634  0.700366  0.243131  -0.660378
    O   O30   0.251608  0.700366  0.193998  -0.677368
    O   O31   0.108155  0.573935  0.975793  -0.340572
    O   O32   0.205634  0.783563  0.243131  -0.561511
    O   O33   0.251608  0.783563  0.193998  -0.675336
    O   O34   0.407916  0.409994  0.475793  -0.342860
    O   O35   0.966437  0.939563  0.006869  -0.625219
    O   O36   0.264463  0.783563  0.306002  -0.674743
    O   O37   0.310437  0.783563  0.256869  -0.561244
    O   O38   0.176065  0.141845  0.725793  -0.344791
    O   O39   0.251608  0.283563  0.806002  -0.678288
    O   O40   0.205634  0.283563  0.756869  -0.660553
    O   O41   0.340006  0.842084  0.225793  -0.344043
    O   O42   0.310437  0.283563  0.743131  -0.659755
    O   O43   0.264463  0.283563  0.693998  -0.677768
    O   O44   0.608155  0.409994  0.475793  -0.341993
    O   O45   0.310437  0.200366  0.743131  -0.561912
    O   O46   0.264463  0.200366  0.693998  -0.676388
    O   O47   0.251608  0.200366  0.806002  -0.674971
    O   O48   0.907916  0.573935  0.975793  -0.341682
    O   O49   0.205634  0.200366  0.756869  -0.560856
    O   O50   0.340006  0.141845  0.774207  -0.346317
    O   O51   0.751608  0.283563  0.693998  -0.678314
    O   O52   0.966437  0.044366  0.993131  -0.626454
    O   O53   0.705634  0.283563  0.743131  -0.660579
    O   O54   0.810437  0.283563  0.756869  -0.659793
    O   O55   0.176065  0.842084  0.274207  -0.345197
    O   O56   0.764463  0.283563  0.806002  -0.677824
    O   O57   0.810437  0.200366  0.756869  -0.561986
    O   O58   0.764463  0.200366  0.806002  -0.676448
    O   O59   0.907916  0.409994  0.024207  -0.342834
    O   O60   0.751608  0.200366  0.693998  -0.675007
    O   O61   0.705634  0.200366  0.743131  -0.560867
    O   O62   0.966437  0.998392  0.943998  -0.669514
    O   O63   0.608155  0.573935  0.524207  -0.340553
    O   O64   0.764463  0.700366  0.193998  -0.678800
    O   O65   0.810437  0.700366  0.243131  -0.659879
    O   O66   0.705634  0.700366  0.256869  -0.660381
    O   O67   0.751608  0.700366  0.306002  -0.677366
    O   O68   0.705634  0.783563  0.256869  -0.561505
    O   O69   0.751608  0.783563  0.306002  -0.675342
    O   O70   0.764463  0.783563  0.193998  -0.674731
    O   O71   0.810437  0.783563  0.243131  -0.561233
    O   O72   0.466437  0.485537  0.556002  -0.686661
    O   O73   0.466437  0.439563  0.506869  -0.606087
    O   O74   0.049634  0.044366  0.993131  -0.625584
    O   O75   0.466437  0.544366  0.493131  -0.605574
    O   O76   0.466437  0.498392  0.443998  -0.688468
    O   O77   0.549634  0.544366  0.493131  -0.606244
    O   O78   0.549634  0.498392  0.443998  -0.689153
    O   O79   0.549634  0.485537  0.556002  -0.688045
    O   O80   0.549634  0.439563  0.506869  -0.606406
