# generated using pymatgen
data_CuH11C18IBrN3O4
_symmetry_space_group_name_H-M   'P 1'
_cell_length_a   25.96580000
_cell_length_b   25.96580000
_cell_length_c   23.87650000
_cell_angle_alpha   90.00000000
_cell_angle_beta   90.00000000
_cell_angle_gamma   90.00000000
_symmetry_Int_Tables_number   1
_chemical_formula_structural   CuH11C18IBrN3O4
_chemical_formula_sum   'Cu16 H176 C288 I16 Br16 N48 O64'
_cell_volume   16098.07995931
_cell_formula_units_Z   16
loop_
 _symmetry_equiv_pos_site_id
 _symmetry_equiv_pos_as_xyz
  1  'x, y, z'
loop_
 _atom_site_type_symbol
 _atom_site_label
 _atom_site_symmetry_multiplicity
 _atom_site_fract_x
 _atom_site_fract_y
 _atom_site_fract_z
 _atom_site_occupancy
  Cu  Cu1  1  0.01005800  0.95378800  0.96068200  1
  Cu  Cu2  1  0.01005800  0.02609700  0.03931800  1
  Cu  Cu3  1  0.51005800  0.02609700  0.46068200  1
  Cu  Cu4  1  0.51005800  0.95378800  0.53931800  1
  Cu  Cu5  1  0.29621200  0.73994200  0.21068200  1
  Cu  Cu6  1  0.22390300  0.73994200  0.28931800  1
  Cu  Cu7  1  0.22390300  0.23994200  0.71068200  1
  Cu  Cu8  1  0.29621200  0.23994200  0.78931800  1
  Cu  Cu9  1  0.72390300  0.23994200  0.78931800  1
  Cu  Cu10  1  0.79621200  0.23994200  0.71068200  1
  Cu  Cu11  1  0.79621200  0.73994200  0.28931800  1
  Cu  Cu12  1  0.72390300  0.73994200  0.21068200  1
  Cu  Cu13  1  0.51005800  0.45378800  0.46068200  1
  Cu  Cu14  1  0.51005800  0.52609700  0.53931800  1
  Cu  Cu15  1  0.01005800  0.52609700  0.96068200  1
  Cu  Cu16  1  0.01005800  0.45378800  0.03931800  1
  H  H1  1  0.78356200  0.86594200  0.11203000  1
  H  H2  1  0.96921000  0.87711400  0.13771000  1
  H  H3  1  0.76701600  0.83527800  0.99843000  1
  H  H4  1  0.87450900  0.93634600  0.92129100  1
  H  H5  1  0.78628600  0.82223300  0.81311700  1
  H  H6  1  0.81438200  0.81438200  0.71161300  1
  H  H7  1  0.95780400  0.88596300  0.75196800  1
  H  H8  1  0.92928500  0.89429400  0.85055300  1
  H  H9  1  0.76260500  0.96618500  0.07459300  1
  H  H10  1  0.75315700  0.95212200  0.00541700  1
  H  H11  1  0.84178600  0.96704500  0.02273300  1
  H  H12  1  0.73655400  0.11394200  0.61203000  1
  H  H13  1  0.55090600  0.10277000  0.63771000  1
  H  H14  1  0.75309900  0.14460600  0.49843000  1
  H  H15  1  0.64560600  0.04353900  0.42129100  1
  H  H16  1  0.73383000  0.15765200  0.31311700  1
  H  H17  1  0.70573400  0.16550300  0.21161300  1
  H  H18  1  0.56231100  0.09392100  0.25196800  1
  H  H19  1  0.59083000  0.08559000  0.35055300  1
  H  H20  1  0.75751000  0.01369900  0.57459300  1
  H  H21  1  0.76695900  0.02776200  0.50541700  1
  H  H22  1  0.67833000  0.01284000  0.52273300  1
  H  H23  1  0.38405800  0.51344600  0.36203000  1
  H  H24  1  0.37288600  0.69909400  0.38771000  1
  H  H25  1  0.41472200  0.49690100  0.24843000  1
  H  H26  1  0.31365400  0.60439400  0.17129100  1
  H  H27  1  0.42776700  0.51617000  0.06311700  1
  H  H28  1  0.43561800  0.54426600  0.96161300  1
  H  H29  1  0.36403700  0.68768900  0.00196800  1
  H  H30  1  0.35570600  0.65917000  0.10055300  1
  H  H31  1  0.28381500  0.49249000  0.32459300  1
  H  H32  1  0.29787800  0.48304100  0.25541700  1
  H  H33  1  0.28295500  0.57167000  0.27273300  1
  H  H34  1  0.13605800  0.46643800  0.86203000  1
  H  H35  1  0.14723000  0.28079000  0.88771000  1
  H  H36  1  0.10539400  0.48298400  0.74843000  1
  H  H37  1  0.20646100  0.37549100  0.67129100  1
  H  H38  1  0.09234800  0.46371400  0.56311700  1
  H  H39  1  0.08449700  0.43561800  0.46161300  1
  H  H40  1  0.15607900  0.29219600  0.50196800  1
  H  H41  1  0.16441000  0.32071500  0.60055300  1
  H  H42  1  0.23630100  0.48739500  0.82459300  1
  H  H43  1  0.22223800  0.49684300  0.75541700  1
  H  H44  1  0.23716000  0.40821400  0.77273300  1
  H  H45  1  0.73655400  0.86594200  0.38797000  1
  H  H46  1  0.55090600  0.87711400  0.36229000  1
  H  H47  1  0.75309900  0.83527800  0.50157000  1
  H  H48  1  0.64560600  0.93634600  0.57870900  1
  H  H49  1  0.73383000  0.82223300  0.68688300  1
  H  H50  1  0.70573400  0.81438200  0.78838700  1
  H  H51  1  0.56231100  0.88596300  0.74803200  1
  H  H52  1  0.59083000  0.89429400  0.64944700  1
  H  H53  1  0.75751000  0.96618500  0.42540700  1
  H  H54  1  0.76695900  0.95212200  0.49458300  1
  H  H55  1  0.67833000  0.96704500  0.47726700  1
  H  H56  1  0.78356200  0.11394200  0.88797000  1
  H  H57  1  0.96921000  0.10277000  0.86229000  1
  H  H58  1  0.76701600  0.14460600  0.00157000  1
  H  H59  1  0.87450900  0.04353900  0.07870900  1
  H  H60  1  0.78628600  0.15765200  0.18688300  1
  H  H61  1  0.81438200  0.16550300  0.28838700  1
  H  H62  1  0.95780400  0.09392100  0.24803200  1
  H  H63  1  0.92928500  0.08559000  0.14944700  1
  H  H64  1  0.76260500  0.01369900  0.92540700  1
  H  H65  1  0.75315700  0.02776200  0.99458300  1
  H  H66  1  0.84178600  0.01284000  0.97726700  1
  H  H67  1  0.13605800  0.51344600  0.13797000  1
  H  H68  1  0.14723000  0.69909400  0.11229000  1
  H  H69  1  0.10539400  0.49690100  0.25157000  1
  H  H70  1  0.20646100  0.60439400  0.32870900  1
  H  H71  1  0.09234800  0.51617000  0.43688300  1
  H  H72  1  0.08449700  0.54426600  0.53838700  1
  H  H73  1  0.15607900  0.68768900  0.49803200  1
  H  H74  1  0.16441000  0.65917000  0.39944700  1
  H  H75  1  0.23630100  0.49249000  0.17540700  1
  H  H76  1  0.22223800  0.48304100  0.24458300  1
  H  H77  1  0.23716000  0.57167000  0.22726700  1
  H  H78  1  0.38405800  0.46643800  0.63797000  1
  H  H79  1  0.37288600  0.28079000  0.61229000  1
  H  H80  1  0.41472200  0.48298400  0.75157000  1
  H  H81  1  0.31365400  0.37549100  0.82870900  1
  H  H82  1  0.42776700  0.46371400  0.93688300  1
  H  H83  1  0.43561800  0.43561800  0.03838700  1
  H  H84  1  0.36403700  0.29219600  0.99803200  1
  H  H85  1  0.35570600  0.32071500  0.89944700  1
  H  H86  1  0.28381500  0.48739500  0.67540700  1
  H  H87  1  0.29787800  0.49684300  0.74458300  1
  H  H88  1  0.28295500  0.40821400  0.72726700  1
  H  H89  1  0.23655400  0.11394200  0.88797000  1
  H  H90  1  0.05090600  0.10277000  0.86229000  1
  H  H91  1  0.25309900  0.14460600  0.00157000  1
  H  H92  1  0.14560600  0.04353900  0.07870900  1
  H  H93  1  0.23383000  0.15765200  0.18688300  1
  H  H94  1  0.20573400  0.16550300  0.28838700  1
  H  H95  1  0.06231100  0.09392100  0.24803200  1
  H  H96  1  0.09083000  0.08559000  0.14944700  1
  H  H97  1  0.25751000  0.01369900  0.92540700  1
  H  H98  1  0.26695900  0.02776200  0.99458300  1
  H  H99  1  0.17833000  0.01284000  0.97726700  1
  H  H100  1  0.28356200  0.86594200  0.38797000  1
  H  H101  1  0.46921000  0.87711400  0.36229000  1
  H  H102  1  0.26701600  0.83527800  0.50157000  1
  H  H103  1  0.37450900  0.93634600  0.57870900  1
  H  H104  1  0.28628600  0.82223300  0.68688300  1
  H  H105  1  0.31438200  0.81438200  0.78838700  1
  H  H106  1  0.45780400  0.88596300  0.74803200  1
  H  H107  1  0.42928500  0.89429400  0.64944700  1
  H  H108  1  0.26260500  0.96618500  0.42540700  1
  H  H109  1  0.25315700  0.95212200  0.49458300  1
  H  H110  1  0.34178600  0.96704500  0.47726700  1
  H  H111  1  0.63605800  0.46643800  0.63797000  1
  H  H112  1  0.64723000  0.28079000  0.61229000  1
  H  H113  1  0.60539400  0.48298400  0.75157000  1
  H  H114  1  0.70646100  0.37549100  0.82870900  1
  H  H115  1  0.59234800  0.46371400  0.93688300  1
  H  H116  1  0.58449700  0.43561800  0.03838700  1
  H  H117  1  0.65607900  0.29219600  0.99803200  1
  H  H118  1  0.66441000  0.32071500  0.89944700  1
  H  H119  1  0.73630100  0.48739500  0.67540700  1
  H  H120  1  0.72223800  0.49684300  0.74458300  1
  H  H121  1  0.73716000  0.40821400  0.72726700  1
  H  H122  1  0.88405800  0.51344600  0.13797000  1
  H  H123  1  0.87288600  0.69909400  0.11229000  1
  H  H124  1  0.91472200  0.49690100  0.25157000  1
  H  H125  1  0.81365400  0.60439400  0.32870900  1
  H  H126  1  0.92776700  0.51617000  0.43688300  1
  H  H127  1  0.93561800  0.54426600  0.53838700  1
  H  H128  1  0.86403700  0.68768900  0.49803200  1
  H  H129  1  0.85570600  0.65917000  0.39944700  1
  H  H130  1  0.78381500  0.49249000  0.17540700  1
  H  H131  1  0.79787800  0.48304100  0.24458300  1
  H  H132  1  0.78295500  0.57167000  0.22726700  1
  H  H133  1  0.28356200  0.11394200  0.61203000  1
  H  H134  1  0.46921000  0.10277000  0.63771000  1
  H  H135  1  0.26701600  0.14460600  0.49843000  1
  H  H136  1  0.37450900  0.04353900  0.42129100  1
  H  H137  1  0.28628600  0.15765200  0.31311700  1
  H  H138  1  0.31438200  0.16550300  0.21161300  1
  H  H139  1  0.45780400  0.09392100  0.25196800  1
  H  H140  1  0.42928500  0.08559000  0.35055300  1
  H  H141  1  0.26260500  0.01369900  0.57459300  1
  H  H142  1  0.25315700  0.02776200  0.50541700  1
  H  H143  1  0.34178600  0.01284000  0.52273300  1
  H  H144  1  0.23655400  0.86594200  0.11203000  1
  H  H145  1  0.05090600  0.87711400  0.13771000  1
  H  H146  1  0.25309900  0.83527800  0.99843000  1
  H  H147  1  0.14560600  0.93634600  0.92129100  1
  H  H148  1  0.23383000  0.82223300  0.81311700  1
  H  H149  1  0.20573400  0.81438200  0.71161300  1
  H  H150  1  0.06231100  0.88596300  0.75196800  1
  H  H151  1  0.09083000  0.89429400  0.85055300  1
  H  H152  1  0.25751000  0.96618500  0.07459300  1
  H  H153  1  0.26695900  0.95212200  0.00541700  1
  H  H154  1  0.17833000  0.96704500  0.02273300  1
  H  H155  1  0.88405800  0.46643800  0.86203000  1
  H  H156  1  0.87288600  0.28079000  0.88771000  1
  H  H157  1  0.91472200  0.48298400  0.74843000  1
  H  H158  1  0.81365400  0.37549100  0.67129100  1
  H  H159  1  0.92776700  0.46371400  0.56311700  1
  H  H160  1  0.93561800  0.43561800  0.46161300  1
  H  H161  1  0.86403700  0.29219600  0.50196800  1
  H  H162  1  0.85570600  0.32071500  0.60055300  1
  H  H163  1  0.78381500  0.48739500  0.82459300  1
  H  H164  1  0.79787800  0.49684300  0.75541700  1
  H  H165  1  0.78295500  0.40821400  0.77273300  1
  H  H166  1  0.63605800  0.51344600  0.36203000  1
  H  H167  1  0.64723000  0.69909400  0.38771000  1
  H  H168  1  0.60539400  0.49690100  0.24843000  1
  H  H169  1  0.70646100  0.60439400  0.17129100  1
  H  H170  1  0.59234800  0.51617000  0.06311700  1
  H  H171  1  0.58449700  0.54426600  0.96161300  1
  H  H172  1  0.65607900  0.68768900  0.00196800  1
  H  H173  1  0.66441000  0.65917000  0.10055300  1
  H  H174  1  0.73630100  0.49249000  0.32459300  1
  H  H175  1  0.72223800  0.48304100  0.25541700  1
  H  H176  1  0.73716000  0.57167000  0.27273300  1
  C  C1  1  0.07873600  0.53850500  0.05281200  1
  C  C2  1  0.07873600  0.44137900  0.94718800  1
  C  C3  1  0.94137900  0.44137900  0.94718800  1
  C  C4  1  0.94137900  0.53850500  0.05281200  1
  C  C5  1  0.07873600  0.94137900  0.05281200  1
  C  C6  1  0.89999100  0.84521900  0.16634300  1
  C  C7  1  0.84729500  0.83985700  0.15960000  1
  C  C8  1  0.82573100  0.86970600  0.11525800  1
  C  C9  1  0.85144800  0.90252400  0.07893900  1
  C  C10  1  0.90344800  0.90543100  0.09019900  1
  C  C11  1  0.92882500  0.87675200  0.13407500  1
  C  C12  1  0.82398800  0.93082700  0.03381900  1
  C  C13  1  0.82621300  0.89732700  0.98276600  1
  C  C14  1  0.79403800  0.85417300  0.97112500  1
  C  C15  1  0.85034900  0.90675000  0.93579600  1
  C  C16  1  0.85438300  0.86358300  0.83899100  1
  C  C17  1  0.82253700  0.83726700  0.80060200  1
  C  C18  1  0.83719700  0.83035600  0.74370300  1
  C  C19  1  0.88498100  0.84880800  0.72921000  1
  C  C20  1  0.91847200  0.87521000  0.76670100  1
  C  C21  1  0.90274000  0.87897500  0.82341500  1
  C  C22  1  0.62012500  0.13466600  0.66634300  1
  C  C23  1  0.67282100  0.14002800  0.65960000  1
  C  C24  1  0.69438400  0.11017800  0.61525800  1
  C  C25  1  0.66866800  0.07736100  0.57893900  1
  C  C26  1  0.61666800  0.07445300  0.59019900  1
  C  C27  1  0.59129100  0.10313200  0.63407500  1
  C  C28  1  0.69612800  0.04905800  0.53381900  1
  C  C29  1  0.69390200  0.08255800  0.48276600  1
  C  C30  1  0.72607800  0.12571200  0.47112500  1
  C  C31  1  0.66976700  0.07313500  0.43579600  1
  C  C32  1  0.57873600  0.03850500  0.55281200  1
  C  C33  1  0.66573300  0.11630200  0.33899100  1
  C  C34  1  0.69757900  0.14261700  0.30060200  1
  C  C35  1  0.68291900  0.14952800  0.24370300  1
  C  C36  1  0.63513400  0.13107700  0.22921000  1
  C  C37  1  0.60164400  0.10467400  0.26670100  1
  C  C38  1  0.61737600  0.10090900  0.32341500  1
  C  C39  1  0.40478100  0.62987500  0.41634300  1
  C  C40  1  0.41014300  0.57717900  0.40960000  1
  C  C41  1  0.38029400  0.55561600  0.36525800  1
  C  C42  1  0.34747600  0.58133200  0.32893900  1
  C  C43  1  0.34456900  0.63333200  0.34019900  1
  C  C44  1  0.37324800  0.65870900  0.38407500  1
  C  C45  1  0.31917300  0.55387200  0.28381900  1
  C  C46  1  0.35267300  0.55609800  0.23276600  1
  C  C47  1  0.39582700  0.52392200  0.22112500  1
  C  C48  1  0.57873600  0.94137900  0.44718800  1
  C  C49  1  0.34325000  0.58023300  0.18579600  1
  C  C50  1  0.38641700  0.58426700  0.08899100  1
  C  C51  1  0.41273300  0.55242100  0.05060200  1
  C  C52  1  0.41964400  0.56708100  0.99370300  1
  C  C53  1  0.40119200  0.61486600  0.97921000  1
  C  C54  1  0.37479000  0.64835600  0.01670100  1
  C  C55  1  0.37102500  0.63262400  0.07341500  1
  C  C56  1  0.94137900  0.94137900  0.05281200  1
  C  C57  1  0.11533400  0.35000900  0.91634300  1
  C  C58  1  0.10997200  0.40270500  0.90960000  1
  C  C59  1  0.13982200  0.42426900  0.86525800  1
  C  C60  1  0.17263900  0.39855200  0.82893900  1
  C  C61  1  0.17554700  0.34655200  0.84019900  1
  C  C62  1  0.14686800  0.32117500  0.88407500  1
  C  C63  1  0.20094200  0.42601200  0.78381900  1
  C  C64  1  0.16744200  0.42378700  0.73276600  1
  C  C65  1  0.44137900  0.94137900  0.44718800  1
  C  C66  1  0.12428800  0.45596200  0.72112500  1
  C  C67  1  0.17686500  0.39965100  0.68579600  1
  C  C68  1  0.13369800  0.39561700  0.58899100  1
  C  C69  1  0.10738300  0.42746300  0.55060200  1
  C  C70  1  0.10047200  0.41280300  0.49370300  1
  C  C71  1  0.11892300  0.36501900  0.47921000  1
  C  C72  1  0.14532600  0.33152800  0.51670100  1
  C  C73  1  0.14909100  0.34726000  0.57341500  1
  C  C74  1  0.62012500  0.84521900  0.33365700  1
  C  C75  1  0.67282100  0.83985700  0.34040000  1
  C  C76  1  0.69438400  0.86970600  0.38474200  1
  C  C77  1  0.66866800  0.90252400  0.42106100  1
  C  C78  1  0.61666800  0.90543100  0.40980100  1
  C  C79  1  0.59129100  0.87675200  0.36592500  1
  C  C80  1  0.69612800  0.93082700  0.46618100  1
  C  C81  1  0.44137900  0.03850500  0.55281200  1
  C  C82  1  0.69390200  0.89732700  0.51723400  1
  C  C83  1  0.72607800  0.85417300  0.52887500  1
  C  C84  1  0.66976700  0.90675000  0.56420400  1
  C  C85  1  0.66573300  0.86358300  0.66100900  1
  C  C86  1  0.69757900  0.83726700  0.69939800  1
  C  C87  1  0.68291900  0.83035600  0.75629700  1
  C  C88  1  0.63513400  0.84880800  0.77079000  1
  C  C89  1  0.60164400  0.87521000  0.73329900  1
  C  C90  1  0.61737600  0.87897500  0.67658500  1
  C  C91  1  0.89999100  0.13466600  0.83365700  1
  C  C92  1  0.84729500  0.14002800  0.84040000  1
  C  C93  1  0.82573100  0.11017800  0.88474200  1
  C  C94  1  0.85144800  0.07736100  0.92106100  1
  C  C95  1  0.90344800  0.07445300  0.90980100  1
  C  C96  1  0.92882500  0.10313200  0.86592500  1
  C  C97  1  0.82398800  0.04905800  0.96618100  1
  C  C98  1  0.82621300  0.08255800  0.01723400  1
  C  C99  1  0.79403800  0.12571200  0.02887500  1
  C  C100  1  0.85034900  0.07313500  0.06420400  1
  C  C101  1  0.85438300  0.11630200  0.16100900  1
  C  C102  1  0.82253700  0.14261700  0.19939800  1
  C  C103  1  0.83719700  0.14952800  0.25629700  1
  C  C104  1  0.88498100  0.13107700  0.27079000  1
  C  C105  1  0.91847200  0.10467400  0.23329900  1
  C  C106  1  0.90274000  0.10090900  0.17658500  1
  C  C107  1  0.30862100  0.67126400  0.30281200  1
  C  C108  1  0.11533400  0.62987500  0.08365700  1
  C  C109  1  0.10997200  0.57717900  0.09040000  1
  C  C110  1  0.13982200  0.55561600  0.13474200  1
  C  C111  1  0.17263900  0.58133200  0.17106100  1
  C  C112  1  0.17554700  0.63333200  0.15980100  1
  C  C113  1  0.14686800  0.65870900  0.11592500  1
  C  C114  1  0.20094200  0.55387200  0.21618100  1
  C  C115  1  0.16744200  0.55609800  0.26723400  1
  C  C116  1  0.12428800  0.52392200  0.27887500  1
  C  C117  1  0.17686500  0.58023300  0.31420400  1
  C  C118  1  0.13369800  0.58426700  0.41100900  1
  C  C119  1  0.10738300  0.55242100  0.44939800  1
  C  C120  1  0.10047200  0.56708100  0.50629700  1
  C  C121  1  0.11892300  0.61486600  0.52079000  1
  C  C122  1  0.14532600  0.64835600  0.48329900  1
  C  C123  1  0.14909100  0.63262400  0.42658500  1
  C  C124  1  0.21149500  0.67126400  0.19718800  1
  C  C125  1  0.40478100  0.35000900  0.58365700  1
  C  C126  1  0.41014300  0.40270500  0.59040000  1
  C  C127  1  0.38029400  0.42426900  0.63474200  1
  C  C128  1  0.34747600  0.39855200  0.67106100  1
  C  C129  1  0.34456900  0.34655200  0.65980100  1
  C  C130  1  0.37324800  0.32117500  0.61592500  1
  C  C131  1  0.31917300  0.42601200  0.71618100  1
  C  C132  1  0.35267300  0.42378700  0.76723400  1
  C  C133  1  0.39582700  0.45596200  0.77887500  1
  C  C134  1  0.34325000  0.39965100  0.81420400  1
  C  C135  1  0.38641700  0.39561700  0.91100900  1
  C  C136  1  0.41273300  0.42746300  0.94939800  1
  C  C137  1  0.41964400  0.41280300  0.00629700  1
  C  C138  1  0.40119200  0.36501900  0.02079000  1
  C  C139  1  0.37479000  0.33152800  0.98329900  1
  C  C140  1  0.37102500  0.34726000  0.92658500  1
  C  C141  1  0.21149500  0.80862100  0.19718800  1
  C  C142  1  0.12012500  0.13466600  0.83365700  1
  C  C143  1  0.17282100  0.14002800  0.84040000  1
  C  C144  1  0.19438400  0.11017800  0.88474200  1
  C  C145  1  0.16866800  0.07736100  0.92106100  1
  C  C146  1  0.11666800  0.07445300  0.90980100  1
  C  C147  1  0.09129100  0.10313200  0.86592500  1
  C  C148  1  0.19612800  0.04905800  0.96618100  1
  C  C149  1  0.19390200  0.08255800  0.01723400  1
  C  C150  1  0.22607800  0.12571200  0.02887500  1
  C  C151  1  0.16976700  0.07313500  0.06420400  1
  C  C152  1  0.16573300  0.11630200  0.16100900  1
  C  C153  1  0.19757900  0.14261700  0.19939800  1
  C  C154  1  0.18291900  0.14952800  0.25629700  1
  C  C155  1  0.13513400  0.13107700  0.27079000  1
  C  C156  1  0.10164400  0.10467400  0.23329900  1
  C  C157  1  0.30862100  0.80862100  0.30281200  1
  C  C158  1  0.11737600  0.10090900  0.17658500  1
  C  C159  1  0.39999100  0.84521900  0.33365700  1
  C  C160  1  0.34729500  0.83985700  0.34040000  1
  C  C161  1  0.32573100  0.86970600  0.38474200  1
  C  C162  1  0.35144800  0.90252400  0.42106100  1
  C  C163  1  0.40344800  0.90543100  0.40980100  1
  C  C164  1  0.42882500  0.87675200  0.36592500  1
  C  C165  1  0.32398800  0.93082700  0.46618100  1
  C  C166  1  0.32621300  0.89732700  0.51723400  1
  C  C167  1  0.29403800  0.85417300  0.52887500  1
  C  C168  1  0.35034900  0.90675000  0.56420400  1
  C  C169  1  0.35438300  0.86358300  0.66100900  1
  C  C170  1  0.32253700  0.83726700  0.69939800  1
  C  C171  1  0.33719700  0.83035600  0.75629700  1
  C  C172  1  0.38498100  0.84880800  0.77079000  1
  C  C173  1  0.41847200  0.87521000  0.73329900  1
  C  C174  1  0.40274000  0.87897500  0.67658500  1
  C  C175  1  0.61533400  0.35000900  0.58365700  1
  C  C176  1  0.60997200  0.40270500  0.59040000  1
  C  C177  1  0.63982200  0.42426900  0.63474200  1
  C  C178  1  0.67263900  0.39855200  0.67106100  1
  C  C179  1  0.67554700  0.34655200  0.65980100  1
  C  C180  1  0.64686800  0.32117500  0.61592500  1
  C  C181  1  0.21149500  0.30862100  0.80281200  1
  C  C182  1  0.70094200  0.42601200  0.71618100  1
  C  C183  1  0.66744200  0.42378700  0.76723400  1
  C  C184  1  0.62428800  0.45596200  0.77887500  1
  C  C185  1  0.67686500  0.39965100  0.81420400  1
  C  C186  1  0.63369800  0.39561700  0.91100900  1
  C  C187  1  0.60738300  0.42746300  0.94939800  1
  C  C188  1  0.60047200  0.41280300  0.00629700  1
  C  C189  1  0.61892300  0.36501900  0.02079000  1
  C  C190  1  0.64532600  0.33152800  0.98329900  1
  C  C191  1  0.64909100  0.34726000  0.92658500  1
  C  C192  1  0.90478100  0.62987500  0.08365700  1
  C  C193  1  0.91014300  0.57717900  0.09040000  1
  C  C194  1  0.88029400  0.55561600  0.13474200  1
  C  C195  1  0.84747600  0.58133200  0.17106100  1
  C  C196  1  0.84456900  0.63333200  0.15980100  1
  C  C197  1  0.30862100  0.30862100  0.69718800  1
  C  C198  1  0.87324800  0.65870900  0.11592500  1
  C  C199  1  0.81917300  0.55387200  0.21618100  1
  C  C200  1  0.85267300  0.55609800  0.26723400  1
  C  C201  1  0.89582700  0.52392200  0.27887500  1
  C  C202  1  0.84325000  0.58023300  0.31420400  1
  C  C203  1  0.88641700  0.58426700  0.41100900  1
  C  C204  1  0.91273300  0.55242100  0.44939800  1
  C  C205  1  0.91964400  0.56708100  0.50629700  1
  C  C206  1  0.90119200  0.61486600  0.52079000  1
  C  C207  1  0.87479000  0.64835600  0.48329900  1
  C  C208  1  0.87102500  0.63262400  0.42658500  1
  C  C209  1  0.39999100  0.13466600  0.66634300  1
  C  C210  1  0.34729500  0.14002800  0.65960000  1
  C  C211  1  0.32573100  0.11017800  0.61525800  1
  C  C212  1  0.94137900  0.03850500  0.94718800  1
  C  C213  1  0.30862100  0.17126400  0.69718800  1
  C  C214  1  0.35144800  0.07736100  0.57893900  1
  C  C215  1  0.40344800  0.07445300  0.59019900  1
  C  C216  1  0.42882500  0.10313200  0.63407500  1
  C  C217  1  0.32398800  0.04905800  0.53381900  1
  C  C218  1  0.32621300  0.08255800  0.48276600  1
  C  C219  1  0.29403800  0.12571200  0.47112500  1
  C  C220  1  0.35034900  0.07313500  0.43579600  1
  C  C221  1  0.35438300  0.11630200  0.33899100  1
  C  C222  1  0.32253700  0.14261700  0.30060200  1
  C  C223  1  0.33719700  0.14952800  0.24370300  1
  C  C224  1  0.38498100  0.13107700  0.22921000  1
  C  C225  1  0.41847200  0.10467400  0.26670100  1
  C  C226  1  0.40274000  0.10090900  0.32341500  1
  C  C227  1  0.12012500  0.84521900  0.16634300  1
  C  C228  1  0.21149500  0.17126400  0.80281200  1
  C  C229  1  0.17282100  0.83985700  0.15960000  1
  C  C230  1  0.19438400  0.86970600  0.11525800  1
  C  C231  1  0.16866800  0.90252400  0.07893900  1
  C  C232  1  0.11666800  0.90543100  0.09019900  1
  C  C233  1  0.09129100  0.87675200  0.13407500  1
  C  C234  1  0.19612800  0.93082700  0.03381900  1
  C  C235  1  0.19390200  0.89732700  0.98276600  1
  C  C236  1  0.22607800  0.85417300  0.97112500  1
  C  C237  1  0.16976700  0.90675000  0.93579600  1
  C  C238  1  0.16573300  0.86358300  0.83899100  1
  C  C239  1  0.19757900  0.83726700  0.80060200  1
  C  C240  1  0.18291900  0.83035600  0.74370300  1
  C  C241  1  0.13513400  0.84880800  0.72921000  1
  C  C242  1  0.10164400  0.87521000  0.76670100  1
  C  C243  1  0.11737600  0.87897500  0.82341500  1
  C  C244  1  0.90478100  0.35000900  0.91634300  1
  C  C245  1  0.91014300  0.40270500  0.90960000  1
  C  C246  1  0.88029400  0.42426900  0.86525800  1
  C  C247  1  0.84747600  0.39855200  0.82893900  1
  C  C248  1  0.84456900  0.34655200  0.84019900  1
  C  C249  1  0.87324800  0.32117500  0.88407500  1
  C  C250  1  0.81917300  0.42601200  0.78381900  1
  C  C251  1  0.85267300  0.42378700  0.73276600  1
  C  C252  1  0.89582700  0.45596200  0.72112500  1
  C  C253  1  0.84325000  0.39965100  0.68579600  1
  C  C254  1  0.88641700  0.39561700  0.58899100  1
  C  C255  1  0.91273300  0.42746300  0.55060200  1
  C  C256  1  0.91964400  0.41280300  0.49370300  1
  C  C257  1  0.90119200  0.36501900  0.47921000  1
  C  C258  1  0.71149500  0.30862100  0.69718800  1
  C  C259  1  0.87479000  0.33152800  0.51670100  1
  C  C260  1  0.87102500  0.34726000  0.57341500  1
  C  C261  1  0.61533400  0.62987500  0.41634300  1
  C  C262  1  0.60997200  0.57717900  0.40960000  1
  C  C263  1  0.63982200  0.55561600  0.36525800  1
  C  C264  1  0.67263900  0.58133200  0.32893900  1
  C  C265  1  0.67554700  0.63333200  0.34019900  1
  C  C266  1  0.64686800  0.65870900  0.38407500  1
  C  C267  1  0.70094200  0.55387200  0.28381900  1
  C  C268  1  0.66744200  0.55609800  0.23276600  1
  C  C269  1  0.62428800  0.52392200  0.22112500  1
  C  C270  1  0.67686500  0.58023300  0.18579600  1
  C  C271  1  0.63369800  0.58426700  0.08899100  1
  C  C272  1  0.60738300  0.55242100  0.05060200  1
  C  C273  1  0.80862100  0.30862100  0.80281200  1
  C  C274  1  0.60047200  0.56708100  0.99370300  1
  C  C275  1  0.61892300  0.61486600  0.97921000  1
  C  C276  1  0.64532600  0.64835600  0.01670100  1
  C  C277  1  0.64909100  0.63262400  0.07341500  1
  C  C278  1  0.80862100  0.17126400  0.80281200  1
  C  C279  1  0.71149500  0.17126400  0.69718800  1
  C  C280  1  0.80862100  0.67126400  0.19718800  1
  C  C281  1  0.71149500  0.67126400  0.30281200  1
  C  C282  1  0.71149500  0.80862100  0.30281200  1
  C  C283  1  0.07873600  0.03850500  0.94718800  1
  C  C284  1  0.80862100  0.80862100  0.19718800  1
  C  C285  1  0.44137900  0.44137900  0.55281200  1
  C  C286  1  0.44137900  0.53850500  0.44718800  1
  C  C287  1  0.57873600  0.53850500  0.44718800  1
  C  C288  1  0.57873600  0.44137900  0.55281200  1
  I  I1  1  0.94201100  0.81059600  0.23255500  1
  I  I2  1  0.57810500  0.16928900  0.73255500  1
  I  I3  1  0.43940400  0.67189500  0.48255500  1
  I  I4  1  0.08071100  0.30798900  0.98255500  1
  I  I5  1  0.57810500  0.81059600  0.26744500  1
  I  I6  1  0.94201100  0.16928900  0.76744500  1
  I  I7  1  0.08071100  0.67189500  0.01744500  1
  I  I8  1  0.43940400  0.30798900  0.51744500  1
  I  I9  1  0.07810500  0.16928900  0.76744500  1
  I  I10  1  0.44201100  0.81059600  0.26744500  1
  I  I11  1  0.58071100  0.30798900  0.51744500  1
  I  I12  1  0.93940400  0.67189500  0.01744500  1
  I  I13  1  0.44201100  0.16928900  0.73255500  1
  I  I14  1  0.07810500  0.81059600  0.23255500  1
  I  I15  1  0.93940400  0.30798900  0.98255500  1
  I  I16  1  0.58071100  0.67189500  0.48255500  1
  Br  Br1  1  0.90827300  0.83848900  0.65878100  1
  Br  Br2  1  0.61184200  0.14139600  0.15878100  1
  Br  Br3  1  0.41151100  0.63815800  0.90878100  1
  Br  Br4  1  0.10860400  0.34172700  0.40878100  1
  Br  Br5  1  0.61184200  0.83848900  0.84121900  1
  Br  Br6  1  0.90827300  0.14139600  0.34121900  1
  Br  Br7  1  0.10860400  0.63815800  0.59121900  1
  Br  Br8  1  0.41151100  0.34172700  0.09121900  1
  Br  Br9  1  0.11184200  0.14139600  0.34121900  1
  Br  Br10  1  0.40827300  0.83848900  0.84121900  1
  Br  Br11  1  0.60860400  0.34172700  0.09121900  1
  Br  Br12  1  0.91151100  0.63815800  0.59121900  1
  Br  Br13  1  0.40827300  0.14139600  0.15878100  1
  Br  Br14  1  0.11184200  0.83848900  0.65878100  1
  Br  Br15  1  0.91151100  0.34172700  0.40878100  1
  Br  Br16  1  0.60860400  0.63815800  0.90878100  1
  N  N1  1  0.76953400  0.94025100  0.04137500  1
  N  N2  1  0.80346300  0.83639400  0.91962700  1
  N  N3  1  0.83768900  0.86918000  0.89672500  1
  N  N4  1  0.75058200  0.03963400  0.54137500  1
  N  N5  1  0.71665300  0.14349100  0.41962700  1
  N  N6  1  0.68242600  0.11070500  0.39672500  1
  N  N7  1  0.30974900  0.49941800  0.29137500  1
  N  N8  1  0.41360600  0.53334700  0.16962700  1
  N  N9  1  0.38082000  0.56757400  0.14672500  1
  N  N10  1  0.21036600  0.48046600  0.79137500  1
  N  N11  1  0.10650900  0.44653700  0.66962700  1
  N  N12  1  0.13929500  0.41231100  0.64672500  1
  N  N13  1  0.75058200  0.94025100  0.45862500  1
  N  N14  1  0.71665300  0.83639400  0.58037300  1
  N  N15  1  0.68242600  0.86918000  0.60327500  1
  N  N16  1  0.76953400  0.03963400  0.95862500  1
  N  N17  1  0.80346300  0.14349100  0.08037300  1
  N  N18  1  0.83768900  0.11070500  0.10327500  1
  N  N19  1  0.21036600  0.49941800  0.20862500  1
  N  N20  1  0.10650900  0.53334700  0.33037300  1
  N  N21  1  0.13929500  0.56757400  0.35327500  1
  N  N22  1  0.30974900  0.48046600  0.70862500  1
  N  N23  1  0.41360600  0.44653700  0.83037300  1
  N  N24  1  0.38082000  0.41231100  0.85327500  1
  N  N25  1  0.25058200  0.03963400  0.95862500  1
  N  N26  1  0.21665300  0.14349100  0.08037300  1
  N  N27  1  0.18242600  0.11070500  0.10327500  1
  N  N28  1  0.26953400  0.94025100  0.45862500  1
  N  N29  1  0.30346300  0.83639400  0.58037300  1
  N  N30  1  0.33768900  0.86918000  0.60327500  1
  N  N31  1  0.71036600  0.48046600  0.70862500  1
  N  N32  1  0.60650900  0.44653700  0.83037300  1
  N  N33  1  0.63929500  0.41231100  0.85327500  1
  N  N34  1  0.80974900  0.49941800  0.20862500  1
  N  N35  1  0.91360600  0.53334700  0.33037300  1
  N  N36  1  0.88082000  0.56757400  0.35327500  1
  N  N37  1  0.26953400  0.03963400  0.54137500  1
  N  N38  1  0.30346300  0.14349100  0.41962700  1
  N  N39  1  0.33768900  0.11070500  0.39672500  1
  N  N40  1  0.25058200  0.94025100  0.04137500  1
  N  N41  1  0.21665300  0.83639400  0.91962700  1
  N  N42  1  0.18242600  0.86918000  0.89672500  1
  N  N43  1  0.80974900  0.48046600  0.79137500  1
  N  N44  1  0.91360600  0.44653700  0.66962700  1
  N  N45  1  0.88082000  0.41231100  0.64672500  1
  N  N46  1  0.71036600  0.49941800  0.29137500  1
  N  N47  1  0.60650900  0.53334700  0.16962700  1
  N  N48  1  0.63929500  0.56757400  0.14672500  1
  O  O1  1  0.06212500  0.99798700  0.92867200  1
  O  O2  1  0.06212500  0.49798700  0.07132800  1
  O  O3  1  0.06212500  0.55553100  0.00874900  1
  O  O4  1  0.06212500  0.42435300  0.99125100  1
  O  O5  1  0.06212500  0.48189800  0.92867200  1
  O  O6  1  0.95799100  0.42435300  0.99125100  1
  O  O7  1  0.95799100  0.48189800  0.92867200  1
  O  O8  1  0.95799100  0.49798700  0.07132800  1
  O  O9  1  0.95799100  0.55553100  0.00874900  1
  O  O10  1  0.06212500  0.98189800  0.07132800  1
  O  O11  1  0.06212500  0.92435300  0.00874900  1
  O  O12  1  0.56212500  0.99798700  0.57132800  1
  O  O13  1  0.56212500  0.05553100  0.50874900  1
  O  O14  1  0.56212500  0.92435300  0.49125100  1
  O  O15  1  0.56212500  0.98189800  0.42867200  1
  O  O16  1  0.45799100  0.92435300  0.49125100  1
  O  O17  1  0.45799100  0.98189800  0.42867200  1
  O  O18  1  0.45799100  0.99798700  0.57132800  1
  O  O19  1  0.45799100  0.05553100  0.50874900  1
  O  O20  1  0.95799100  0.98189800  0.07132800  1
  O  O21  1  0.26810200  0.68787500  0.32132800  1
  O  O22  1  0.32564700  0.68787500  0.25874900  1
  O  O23  1  0.19446900  0.68787500  0.24125100  1
  O  O24  1  0.25201300  0.68787500  0.17867200  1
  O  O25  1  0.19446900  0.79200900  0.24125100  1
  O  O26  1  0.25201300  0.79200900  0.17867200  1
  O  O27  1  0.95799100  0.92435300  0.00874900  1
  O  O28  1  0.26810200  0.79200900  0.32132800  1
  O  O29  1  0.32564700  0.79200900  0.25874900  1
  O  O30  1  0.25201300  0.29200900  0.82132800  1
  O  O31  1  0.19446900  0.29200900  0.75874900  1
  O  O32  1  0.32564700  0.29200900  0.74125100  1
  O  O33  1  0.26810200  0.29200900  0.67867200  1
  O  O34  1  0.32564700  0.18787500  0.74125100  1
  O  O35  1  0.26810200  0.18787500  0.67867200  1
  O  O36  1  0.25201300  0.18787500  0.82132800  1
  O  O37  1  0.19446900  0.18787500  0.75874900  1
  O  O38  1  0.75201300  0.29200900  0.67867200  1
  O  O39  1  0.95799100  0.05553100  0.99125100  1
  O  O40  1  0.69446900  0.29200900  0.74125100  1
  O  O41  1  0.82564700  0.29200900  0.75874900  1
  O  O42  1  0.76810200  0.29200900  0.82132800  1
  O  O43  1  0.82564700  0.18787500  0.75874900  1
  O  O44  1  0.76810200  0.18787500  0.82132800  1
  O  O45  1  0.75201300  0.18787500  0.67867200  1
  O  O46  1  0.69446900  0.18787500  0.74125100  1
  O  O47  1  0.95799100  0.99798700  0.92867200  1
  O  O48  1  0.76810200  0.68787500  0.17867200  1
  O  O49  1  0.82564700  0.68787500  0.24125100  1
  O  O50  1  0.69446900  0.68787500  0.25874900  1
  O  O51  1  0.75201300  0.68787500  0.32132800  1
  O  O52  1  0.69446900  0.79200900  0.25874900  1
  O  O53  1  0.75201300  0.79200900  0.32132800  1
  O  O54  1  0.76810200  0.79200900  0.17867200  1
  O  O55  1  0.82564700  0.79200900  0.24125100  1
  O  O56  1  0.45799100  0.48189800  0.57132800  1
  O  O57  1  0.45799100  0.42435300  0.50874900  1
  O  O58  1  0.06212500  0.05553100  0.99125100  1
  O  O59  1  0.45799100  0.55553100  0.49125100  1
  O  O60  1  0.45799100  0.49798700  0.42867200  1
  O  O61  1  0.56212500  0.55553100  0.49125100  1
  O  O62  1  0.56212500  0.49798700  0.42867200  1
  O  O63  1  0.56212500  0.48189800  0.57132800  1
  O  O64  1  0.56212500  0.42435300  0.50874900  1
