# generated using pymatgen
data_CuH10C23Cl2O7
_symmetry_space_group_name_H-M   'P 1'
_cell_length_a   31.05760000
_cell_length_b   31.05760000
_cell_length_c   28.96830000
_cell_angle_alpha   90.00000000
_cell_angle_beta   90.00000000
_cell_angle_gamma   90.00000000
_symmetry_Int_Tables_number   1
_chemical_formula_structural   CuH10C23Cl2O7
_chemical_formula_sum   'Cu16 H160 C368 Cl32 O112'
_cell_volume   27942.08400283
_cell_formula_units_Z   16
loop_
 _symmetry_equiv_pos_site_id
 _symmetry_equiv_pos_as_xyz
  1  'x, y, z'
loop_
 _atom_site_type_symbol
 _atom_site_label
 _atom_site_symmetry_multiplicity
 _atom_site_fract_x
 _atom_site_fract_y
 _atom_site_fract_z
 _atom_site_occupancy
  Cu  Cu1  1  0.00840900  0.96136400  0.96759300  1
  Cu  Cu2  1  0.00840900  0.02181800  0.03240700  1
  Cu  Cu3  1  0.50840900  0.02181800  0.46759300  1
  Cu  Cu4  1  0.50840900  0.96136400  0.53240700  1
  Cu  Cu5  1  0.28863600  0.74159100  0.21759300  1
  Cu  Cu6  1  0.22818200  0.74159100  0.28240700  1
  Cu  Cu7  1  0.22818200  0.24159100  0.71759300  1
  Cu  Cu8  1  0.28863600  0.24159100  0.78240700  1
  Cu  Cu9  1  0.72818200  0.24159100  0.78240700  1
  Cu  Cu10  1  0.78863600  0.24159100  0.71759300  1
  Cu  Cu11  1  0.78863600  0.74159100  0.28240700  1
  Cu  Cu12  1  0.72818200  0.74159100  0.21759300  1
  Cu  Cu13  1  0.50840900  0.46136400  0.46759300  1
  Cu  Cu14  1  0.50840900  0.52181800  0.53240700  1
  Cu  Cu15  1  0.00840900  0.52181800  0.96759300  1
  Cu  Cu16  1  0.00840900  0.46136400  0.03240700  1
  H  H1  1  0.84751800  0.87345300  0.21104600  1
  H  H2  1  0.80386300  0.78619900  0.11206600  1
  H  H3  1  0.84296400  0.81693900  0.05302400  1
  H  H4  1  0.90847700  0.91651600  0.19247400  1
  H  H5  1  0.95431900  0.95417100  0.13033000  1
  H  H6  1  0.89169700  0.83507600  0.91761300  1
  H  H7  1  0.80498300  0.80498300  0.89411200  1
  H  H8  1  0.74491000  0.91832800  0.99185400  1
  H  H9  1  0.69232200  0.90007600  0.12451500  1
  H  H10  1  0.71492500  0.78715500  0.03845800  1
  H  H11  1  0.66929900  0.10972900  0.71104600  1
  H  H12  1  0.71295400  0.19698300  0.61206600  1
  H  H13  1  0.67385300  0.16624300  0.55302400  1
  H  H14  1  0.60834100  0.06666600  0.69247400  1
  H  H15  1  0.56249800  0.02901100  0.63033000  1
  H  H16  1  0.62512000  0.14810600  0.41761300  1
  H  H17  1  0.71183500  0.17820000  0.39411200  1
  H  H18  1  0.77190800  0.06485500  0.49185400  1
  H  H19  1  0.82449600  0.08310700  0.62451500  1
  H  H20  1  0.80189300  0.19602700  0.53845800  1
  H  H21  1  0.37654700  0.58070100  0.46104600  1
  H  H22  1  0.46380100  0.53704600  0.36206600  1
  H  H23  1  0.43306100  0.57614700  0.30302400  1
  H  H24  1  0.33348400  0.64165900  0.44247400  1
  H  H25  1  0.29582900  0.68750200  0.38033000  1
  H  H26  1  0.41492400  0.62488000  0.16761300  1
  H  H27  1  0.44501700  0.53816500  0.14411200  1
  H  H28  1  0.33167200  0.47809200  0.24185400  1
  H  H29  1  0.34992400  0.42550400  0.37451500  1
  H  H30  1  0.46284500  0.44810700  0.28845800  1
  H  H31  1  0.14027100  0.40248200  0.96104600  1
  H  H32  1  0.05301700  0.44613700  0.86206600  1
  H  H33  1  0.08375700  0.40703600  0.80302400  1
  H  H34  1  0.18333400  0.34152300  0.94247400  1
  H  H35  1  0.22098900  0.29568100  0.88033000  1
  H  H36  1  0.10189400  0.35830300  0.66761300  1
  H  H37  1  0.07180000  0.44501700  0.64411200  1
  H  H38  1  0.18514500  0.50509000  0.74185400  1
  H  H39  1  0.16689300  0.55767800  0.87451500  1
  H  H40  1  0.05397300  0.53507500  0.78845800  1
  H  H41  1  0.66929900  0.87345300  0.28895400  1
  H  H42  1  0.71295400  0.78619900  0.38793400  1
  H  H43  1  0.67385300  0.81693900  0.44697600  1
  H  H44  1  0.60834100  0.91651600  0.30752600  1
  H  H45  1  0.56249800  0.95417100  0.36967000  1
  H  H46  1  0.62512000  0.83507600  0.58238700  1
  H  H47  1  0.71183500  0.80498300  0.60588800  1
  H  H48  1  0.77190800  0.91832800  0.50814600  1
  H  H49  1  0.82449600  0.90007600  0.37548500  1
  H  H50  1  0.80189300  0.78715500  0.46154200  1
  H  H51  1  0.84751800  0.10972900  0.78895400  1
  H  H52  1  0.80386300  0.19698300  0.88793400  1
  H  H53  1  0.84296400  0.16624300  0.94697600  1
  H  H54  1  0.90847700  0.06666600  0.80752600  1
  H  H55  1  0.95431900  0.02901100  0.86967000  1
  H  H56  1  0.89169700  0.14810600  0.08238700  1
  H  H57  1  0.80498300  0.17820000  0.10588800  1
  H  H58  1  0.74491000  0.06485500  0.00814600  1
  H  H59  1  0.69232200  0.08310700  0.87548500  1
  H  H60  1  0.71492500  0.19602700  0.96154200  1
  H  H61  1  0.14027100  0.58070100  0.03895400  1
  H  H62  1  0.05301700  0.53704600  0.13793400  1
  H  H63  1  0.08375700  0.57614700  0.19697600  1
  H  H64  1  0.18333400  0.64165900  0.05752600  1
  H  H65  1  0.22098900  0.68750200  0.11967000  1
  H  H66  1  0.10189400  0.62488000  0.33238700  1
  H  H67  1  0.07180000  0.53816500  0.35588800  1
  H  H68  1  0.18514500  0.47809200  0.25814600  1
  H  H69  1  0.16689300  0.42550400  0.12548500  1
  H  H70  1  0.05397300  0.44810700  0.21154200  1
  H  H71  1  0.37654700  0.40248200  0.53895400  1
  H  H72  1  0.46380100  0.44613700  0.63793400  1
  H  H73  1  0.43306100  0.40703600  0.69697600  1
  H  H74  1  0.33348400  0.34152300  0.55752600  1
  H  H75  1  0.29582900  0.29568100  0.61967000  1
  H  H76  1  0.41492400  0.35830300  0.83238700  1
  H  H77  1  0.44501700  0.44501700  0.85588800  1
  H  H78  1  0.33167200  0.50509000  0.75814600  1
  H  H79  1  0.34992400  0.55767800  0.62548500  1
  H  H80  1  0.46284500  0.53507500  0.71154200  1
  H  H81  1  0.16929900  0.10972900  0.78895400  1
  H  H82  1  0.21295400  0.19698300  0.88793400  1
  H  H83  1  0.17385300  0.16624300  0.94697600  1
  H  H84  1  0.10834100  0.06666600  0.80752600  1
  H  H85  1  0.06249800  0.02901100  0.86967000  1
  H  H86  1  0.12512000  0.14810600  0.08238700  1
  H  H87  1  0.21183500  0.17820000  0.10588800  1
  H  H88  1  0.27190800  0.06485500  0.00814600  1
  H  H89  1  0.32449600  0.08310700  0.87548500  1
  H  H90  1  0.30189300  0.19602700  0.96154200  1
  H  H91  1  0.34751800  0.87345300  0.28895400  1
  H  H92  1  0.30386300  0.78619900  0.38793400  1
  H  H93  1  0.34296400  0.81693900  0.44697600  1
  H  H94  1  0.40847700  0.91651600  0.30752600  1
  H  H95  1  0.45431900  0.95417100  0.36967000  1
  H  H96  1  0.39169700  0.83507600  0.58238700  1
  H  H97  1  0.30498300  0.80498300  0.60588800  1
  H  H98  1  0.24491000  0.91832800  0.50814600  1
  H  H99  1  0.19232200  0.90007600  0.37548500  1
  H  H100  1  0.21492500  0.78715500  0.46154200  1
  H  H101  1  0.64027100  0.40248200  0.53895400  1
  H  H102  1  0.55301700  0.44613700  0.63793400  1
  H  H103  1  0.58375700  0.40703600  0.69697600  1
  H  H104  1  0.68333400  0.34152300  0.55752600  1
  H  H105  1  0.72098900  0.29568100  0.61967000  1
  H  H106  1  0.60189400  0.35830300  0.83238700  1
  H  H107  1  0.57180000  0.44501700  0.85588800  1
  H  H108  1  0.68514500  0.50509000  0.75814600  1
  H  H109  1  0.66689300  0.55767800  0.62548500  1
  H  H110  1  0.55397300  0.53507500  0.71154200  1
  H  H111  1  0.87654700  0.58070100  0.03895400  1
  H  H112  1  0.96380100  0.53704600  0.13793400  1
  H  H113  1  0.93306100  0.57614700  0.19697600  1
  H  H114  1  0.83348400  0.64165900  0.05752600  1
  H  H115  1  0.79582900  0.68750200  0.11967000  1
  H  H116  1  0.91492400  0.62488000  0.33238700  1
  H  H117  1  0.94501700  0.53816500  0.35588800  1
  H  H118  1  0.83167200  0.47809200  0.25814600  1
  H  H119  1  0.84992400  0.42550400  0.12548500  1
  H  H120  1  0.96284500  0.44810700  0.21154200  1
  H  H121  1  0.34751800  0.10972900  0.71104600  1
  H  H122  1  0.30386300  0.19698300  0.61206600  1
  H  H123  1  0.34296400  0.16624300  0.55302400  1
  H  H124  1  0.40847700  0.06666600  0.69247400  1
  H  H125  1  0.45431900  0.02901100  0.63033000  1
  H  H126  1  0.39169700  0.14810600  0.41761300  1
  H  H127  1  0.30498300  0.17820000  0.39411200  1
  H  H128  1  0.24491000  0.06485500  0.49185400  1
  H  H129  1  0.19232200  0.08310700  0.62451500  1
  H  H130  1  0.21492500  0.19602700  0.53845800  1
  H  H131  1  0.16929900  0.87345300  0.21104600  1
  H  H132  1  0.21295400  0.78619900  0.11206600  1
  H  H133  1  0.17385300  0.81693900  0.05302400  1
  H  H134  1  0.10834100  0.91651600  0.19247400  1
  H  H135  1  0.06249800  0.95417100  0.13033000  1
  H  H136  1  0.12512000  0.83507600  0.91761300  1
  H  H137  1  0.21183500  0.80498300  0.89411200  1
  H  H138  1  0.27190800  0.91832800  0.99185400  1
  H  H139  1  0.32449600  0.90007600  0.12451500  1
  H  H140  1  0.30189300  0.78715500  0.03845800  1
  H  H141  1  0.87654700  0.40248200  0.96104600  1
  H  H142  1  0.96380100  0.44613700  0.86206600  1
  H  H143  1  0.93306100  0.40703600  0.80302400  1
  H  H144  1  0.83348400  0.34152300  0.94247400  1
  H  H145  1  0.79582900  0.29568100  0.88033000  1
  H  H146  1  0.91492400  0.35830300  0.66761300  1
  H  H147  1  0.94501700  0.44501700  0.64411200  1
  H  H148  1  0.83167200  0.50509000  0.74185400  1
  H  H149  1  0.84992400  0.55767800  0.87451500  1
  H  H150  1  0.96284500  0.53507500  0.78845800  1
  H  H151  1  0.64027100  0.58070100  0.46104600  1
  H  H152  1  0.55301700  0.53704600  0.36206600  1
  H  H153  1  0.58375700  0.57614700  0.30302400  1
  H  H154  1  0.68333400  0.64165900  0.44247400  1
  H  H155  1  0.72098900  0.68750200  0.38033000  1
  H  H156  1  0.60189400  0.62488000  0.16761300  1
  H  H157  1  0.57180000  0.53816500  0.14411200  1
  H  H158  1  0.68514500  0.47809200  0.24185400  1
  H  H159  1  0.66689300  0.42550400  0.37451500  1
  H  H160  1  0.55397300  0.44810700  0.28845800  1
  C  C1  1  0.06582800  0.53219300  0.04353000  1
  C  C2  1  0.06582800  0.45099000  0.95647000  1
  C  C3  1  0.95099000  0.45099000  0.95647000  1
  C  C4  1  0.95099000  0.53219300  0.04353000  1
  C  C5  1  0.06582800  0.95099000  0.04353000  1
  C  C6  1  0.89748800  0.88619200  0.06085200  1
  C  C7  1  0.87281600  0.86837600  0.09479000  1
  C  C8  1  0.87754800  0.87881100  0.14190500  1
  C  C9  1  0.84912000  0.85981600  0.17722500  1
  C  C10  1  0.82323000  0.82497000  0.16875500  1
  C  C11  1  0.82550300  0.81234300  0.12262700  1
  C  C12  1  0.84718700  0.83149200  0.08782400  1
  C  C13  1  0.90615000  0.90991500  0.15635100  1
  C  C14  1  0.93183600  0.92888000  0.12255300  1
  C  C15  1  0.92689300  0.91734900  0.07617700  1
  C  C16  1  0.89758900  0.87183400  0.00836700  1
  C  C17  1  0.85868200  0.85491800  0.97884500  1
  C  C18  1  0.85982000  0.83840200  0.93511900  1
  C  C19  1  0.81841700  0.82247600  0.92412800  1
  C  C20  1  0.79224400  0.83684400  0.95984500  1
  C  C21  1  0.73170800  0.85145300  0.00961300  1
  C  C22  1  0.73175100  0.89579100  0.01834000  1
  C  C23  1  0.71751900  0.91184000  0.05848100  1
  C  C24  1  0.70388100  0.88623800  0.09234300  1
  C  C25  1  0.70047300  0.84138300  0.08381200  1
  C  C26  1  0.71758600  0.82278600  0.04388300  1
  C  C27  1  0.61933000  0.09699000  0.56085200  1
  C  C28  1  0.64400200  0.11480700  0.59479000  1
  C  C29  1  0.63927000  0.10437100  0.64190500  1
  C  C30  1  0.66769700  0.12336600  0.67722500  1
  C  C31  1  0.69358800  0.15821200  0.66875500  1
  C  C32  1  0.69131500  0.17083900  0.62262700  1
  C  C33  1  0.66963100  0.15169100  0.58782400  1
  C  C34  1  0.61066800  0.07326800  0.65635100  1
  C  C35  1  0.58498200  0.05430200  0.62255300  1
  C  C36  1  0.58992500  0.06583300  0.57617700  1
  C  C37  1  0.56582800  0.03219300  0.54353000  1
  C  C38  1  0.61922800  0.11134900  0.50836700  1
  C  C39  1  0.65813600  0.12826400  0.47884500  1
  C  C40  1  0.65699800  0.14478000  0.43511900  1
  C  C41  1  0.69840100  0.16070600  0.42412800  1
  C  C42  1  0.72457400  0.14633800  0.45984500  1
  C  C43  1  0.78511000  0.13172900  0.50961300  1
  C  C44  1  0.78506700  0.08739100  0.51834000  1
  C  C45  1  0.79929900  0.07134200  0.55848100  1
  C  C46  1  0.81293700  0.09694400  0.59234300  1
  C  C47  1  0.81634400  0.14179900  0.58381200  1
  C  C48  1  0.79923100  0.16039600  0.54388300  1
  C  C49  1  0.36380800  0.63067000  0.31085200  1
  C  C50  1  0.38162400  0.60599800  0.34479000  1
  C  C51  1  0.37118900  0.61073000  0.39190500  1
  C  C52  1  0.39018400  0.58230300  0.42722500  1
  C  C53  1  0.42503000  0.55641200  0.41875500  1
  C  C54  1  0.43765700  0.55868500  0.37262700  1
  C  C55  1  0.56582800  0.95099000  0.45647000  1
  C  C56  1  0.41850800  0.58036900  0.33782400  1
  C  C57  1  0.34008500  0.63933200  0.40635100  1
  C  C58  1  0.32112000  0.66501800  0.37255300  1
  C  C59  1  0.33265100  0.66007500  0.32617700  1
  C  C60  1  0.37816600  0.63077200  0.25836700  1
  C  C61  1  0.95099000  0.95099000  0.04353000  1
  C  C62  1  0.39508200  0.59186400  0.22884500  1
  C  C63  1  0.41159800  0.59300200  0.18511900  1
  C  C64  1  0.42752400  0.55159900  0.17412800  1
  C  C65  1  0.41315600  0.52542600  0.20984500  1
  C  C66  1  0.39854700  0.46489000  0.25961300  1
  C  C67  1  0.35420900  0.46493300  0.26834000  1
  C  C68  1  0.33816000  0.45070100  0.30848100  1
  C  C69  1  0.36376200  0.43706300  0.34234300  1
  C  C70  1  0.40861700  0.43365600  0.33381200  1
  C  C71  1  0.42721400  0.45076900  0.29388300  1
  C  C72  1  0.45099000  0.95099000  0.45647000  1
  C  C73  1  0.15301000  0.35251200  0.81085200  1
  C  C74  1  0.13519300  0.37718400  0.84479000  1
  C  C75  1  0.14562900  0.37245200  0.89190500  1
  C  C76  1  0.12663400  0.40088000  0.92722500  1
  C  C77  1  0.09178800  0.42677000  0.91875500  1
  C  C78  1  0.07916100  0.42449700  0.87262700  1
  C  C79  1  0.09830900  0.40281300  0.83782400  1
  C  C80  1  0.17673200  0.34385000  0.90635100  1
  C  C81  1  0.19569800  0.31816400  0.87255300  1
  C  C82  1  0.18416700  0.32310700  0.82617700  1
  C  C83  1  0.13865100  0.35241100  0.75836700  1
  C  C84  1  0.12173600  0.39131800  0.72884500  1
  C  C85  1  0.10522000  0.39018000  0.68511900  1
  C  C86  1  0.08929400  0.43158300  0.67412800  1
  C  C87  1  0.10366200  0.45775600  0.70984500  1
  C  C88  1  0.11827100  0.51829200  0.75961300  1
  C  C89  1  0.16260900  0.51824900  0.76834000  1
  C  C90  1  0.17865800  0.53248100  0.80848100  1
  C  C91  1  0.15305600  0.54611900  0.84234300  1
  C  C92  1  0.10820100  0.54952700  0.83381200  1
  C  C93  1  0.08960400  0.53241400  0.79388300  1
  C  C94  1  0.45099000  0.03219300  0.54353000  1
  C  C95  1  0.61933000  0.88619200  0.43914800  1
  C  C96  1  0.64400200  0.86837600  0.40521000  1
  C  C97  1  0.63927000  0.87881100  0.35809500  1
  C  C98  1  0.66769700  0.85981600  0.32277500  1
  C  C99  1  0.69358800  0.82497000  0.33124500  1
  C  C100  1  0.69131500  0.81234300  0.37737300  1
  C  C101  1  0.66963100  0.83149200  0.41217600  1
  C  C102  1  0.61066800  0.90991500  0.34364900  1
  C  C103  1  0.58498200  0.92888000  0.37744700  1
  C  C104  1  0.58992500  0.91734900  0.42382300  1
  C  C105  1  0.61922800  0.87183400  0.49163300  1
  C  C106  1  0.65813600  0.85491800  0.52115500  1
  C  C107  1  0.65699800  0.83840200  0.56488100  1
  C  C108  1  0.69840100  0.82247600  0.57587200  1
  C  C109  1  0.72457400  0.83684400  0.54015500  1
  C  C110  1  0.78511000  0.85145300  0.49038700  1
  C  C111  1  0.78506700  0.89579100  0.48166000  1
  C  C112  1  0.79929900  0.91184000  0.44151900  1
  C  C113  1  0.81293700  0.88623800  0.40765700  1
  C  C114  1  0.81634400  0.84138300  0.41618800  1
  C  C115  1  0.79923100  0.82278600  0.45611700  1
  C  C116  1  0.89748800  0.09699000  0.93914800  1
  C  C117  1  0.87281600  0.11480700  0.90521000  1
  C  C118  1  0.87754800  0.10437100  0.85809500  1
  C  C119  1  0.84912000  0.12336600  0.82277500  1
  C  C120  1  0.82323000  0.15821200  0.83124500  1
  C  C121  1  0.82550300  0.17083900  0.87737300  1
  C  C122  1  0.84718700  0.15169100  0.91217600  1
  C  C123  1  0.90615000  0.07326800  0.84364900  1
  C  C124  1  0.29901000  0.68417200  0.29353000  1
  C  C125  1  0.93183600  0.05430200  0.87744700  1
  C  C126  1  0.92689300  0.06583300  0.92382300  1
  C  C127  1  0.89758900  0.11134900  0.99163300  1
  C  C128  1  0.85868200  0.12826400  0.02115500  1
  C  C129  1  0.85982000  0.14478000  0.06488100  1
  C  C130  1  0.81841700  0.16070600  0.07587200  1
  C  C131  1  0.79224400  0.14633800  0.04015500  1
  C  C132  1  0.73170800  0.13172900  0.99038700  1
  C  C133  1  0.73175100  0.08739100  0.98166000  1
  C  C134  1  0.71751900  0.07134200  0.94151900  1
  C  C135  1  0.70388100  0.09694400  0.90765700  1
  C  C136  1  0.70047300  0.14179900  0.91618800  1
  C  C137  1  0.71758600  0.16039600  0.95611700  1
  C  C138  1  0.15301000  0.63067000  0.18914800  1
  C  C139  1  0.13519300  0.60599800  0.15521000  1
  C  C140  1  0.21780700  0.68417200  0.20647000  1
  C  C141  1  0.14562900  0.61073000  0.10809500  1
  C  C142  1  0.12663400  0.58230300  0.07277500  1
  C  C143  1  0.09178800  0.55641200  0.08124500  1
  C  C144  1  0.07916100  0.55868500  0.12737300  1
  C  C145  1  0.09830900  0.58036900  0.16217600  1
  C  C146  1  0.17673200  0.63933200  0.09364900  1
  C  C147  1  0.19569800  0.66501800  0.12744700  1
  C  C148  1  0.18416700  0.66007500  0.17382300  1
  C  C149  1  0.13865100  0.63077200  0.24163300  1
  C  C150  1  0.12173600  0.59186400  0.27115500  1
  C  C151  1  0.10522000  0.59300200  0.31488100  1
  C  C152  1  0.08929400  0.55159900  0.32587200  1
  C  C153  1  0.10366200  0.52542600  0.29015500  1
  C  C154  1  0.11827100  0.46489000  0.24038700  1
  C  C155  1  0.16260900  0.46493300  0.23166000  1
  C  C156  1  0.17865800  0.45070100  0.19151900  1
  C  C157  1  0.15305600  0.43706300  0.15765700  1
  C  C158  1  0.10820100  0.43365600  0.16618800  1
  C  C159  1  0.08960400  0.45076900  0.20611700  1
  C  C160  1  0.21780700  0.79901000  0.20647000  1
  C  C161  1  0.36380800  0.35251200  0.68914800  1
  C  C162  1  0.38162400  0.37718400  0.65521000  1
  C  C163  1  0.37118900  0.37245200  0.60809500  1
  C  C164  1  0.39018400  0.40088000  0.57277500  1
  C  C165  1  0.42503000  0.42677000  0.58124500  1
  C  C166  1  0.43765700  0.42449700  0.62737300  1
  C  C167  1  0.41850800  0.40281300  0.66217600  1
  C  C168  1  0.34008500  0.34385000  0.59364900  1
  C  C169  1  0.32112000  0.31816400  0.62744700  1
  C  C170  1  0.33265100  0.32310700  0.67382300  1
  C  C171  1  0.37816600  0.35241100  0.74163300  1
  C  C172  1  0.39508200  0.39131800  0.77115500  1
  C  C173  1  0.41159800  0.39018000  0.81488100  1
  C  C174  1  0.42752400  0.43158300  0.82587200  1
  C  C175  1  0.41315600  0.45775600  0.79015500  1
  C  C176  1  0.39854700  0.51829200  0.74038700  1
  C  C177  1  0.35420900  0.51824900  0.73166000  1
  C  C178  1  0.33816000  0.53248100  0.69151900  1
  C  C179  1  0.29901000  0.79901000  0.29353000  1
  C  C180  1  0.36376200  0.54611900  0.65765700  1
  C  C181  1  0.40861700  0.54952700  0.66618800  1
  C  C182  1  0.42721400  0.53241400  0.70611700  1
  C  C183  1  0.11933000  0.09699000  0.93914800  1
  C  C184  1  0.14400200  0.11480700  0.90521000  1
  C  C185  1  0.13927000  0.10437100  0.85809500  1
  C  C186  1  0.16769700  0.12336600  0.82277500  1
  C  C187  1  0.19358800  0.15821200  0.83124500  1
  C  C188  1  0.19131500  0.17083900  0.87737300  1
  C  C189  1  0.16963100  0.15169100  0.91217600  1
  C  C190  1  0.11066800  0.07326800  0.84364900  1
  C  C191  1  0.08498200  0.05430200  0.87744700  1
  C  C192  1  0.08992500  0.06583300  0.92382300  1
  C  C193  1  0.11922800  0.11134900  0.99163300  1
  C  C194  1  0.15813600  0.12826400  0.02115500  1
  C  C195  1  0.15699800  0.14478000  0.06488100  1
  C  C196  1  0.19840100  0.16070600  0.07587200  1
  C  C197  1  0.22457400  0.14633800  0.04015500  1
  C  C198  1  0.28511000  0.13172900  0.99038700  1
  C  C199  1  0.28506700  0.08739100  0.98166000  1
  C  C200  1  0.29929900  0.07134200  0.94151900  1
  C  C201  1  0.31293700  0.09694400  0.90765700  1
  C  C202  1  0.31634400  0.14179900  0.91618800  1
  C  C203  1  0.29923100  0.16039600  0.95611700  1
  C  C204  1  0.39748800  0.88619200  0.43914800  1
  C  C205  1  0.37281600  0.86837600  0.40521000  1
  C  C206  1  0.37754800  0.87881100  0.35809500  1
  C  C207  1  0.34912000  0.85981600  0.32277500  1
  C  C208  1  0.21780700  0.29901000  0.79353000  1
  C  C209  1  0.32323000  0.82497000  0.33124500  1
  C  C210  1  0.32550300  0.81234300  0.37737300  1
  C  C211  1  0.34718700  0.83149200  0.41217600  1
  C  C212  1  0.40615000  0.90991500  0.34364900  1
  C  C213  1  0.43183600  0.92888000  0.37744700  1
  C  C214  1  0.42689300  0.91734900  0.42382300  1
  C  C215  1  0.39758900  0.87183400  0.49163300  1
  C  C216  1  0.35868200  0.85491800  0.52115500  1
  C  C217  1  0.35982000  0.83840200  0.56488100  1
  C  C218  1  0.31841700  0.82247600  0.57587200  1
  C  C219  1  0.29224400  0.83684400  0.54015500  1
  C  C220  1  0.23170800  0.85145300  0.49038700  1
  C  C221  1  0.23175100  0.89579100  0.48166000  1
  C  C222  1  0.21751900  0.91184000  0.44151900  1
  C  C223  1  0.20388100  0.88623800  0.40765700  1
  C  C224  1  0.20047300  0.84138300  0.41618800  1
  C  C225  1  0.21758600  0.82278600  0.45611700  1
  C  C226  1  0.29901000  0.29901000  0.70647000  1
  C  C227  1  0.65301000  0.35251200  0.68914800  1
  C  C228  1  0.63519300  0.37718400  0.65521000  1
  C  C229  1  0.64562900  0.37245200  0.60809500  1
  C  C230  1  0.62663400  0.40088000  0.57277500  1
  C  C231  1  0.59178800  0.42677000  0.58124500  1
  C  C232  1  0.57916100  0.42449700  0.62737300  1
  C  C233  1  0.59830900  0.40281300  0.66217600  1
  C  C234  1  0.67673200  0.34385000  0.59364900  1
  C  C235  1  0.69569800  0.31816400  0.62744700  1
  C  C236  1  0.68416700  0.32310700  0.67382300  1
  C  C237  1  0.63865100  0.35241100  0.74163300  1
  C  C238  1  0.62173600  0.39131800  0.77115500  1
  C  C239  1  0.60522000  0.39018000  0.81488100  1
  C  C240  1  0.58929400  0.43158300  0.82587200  1
  C  C241  1  0.60366200  0.45775600  0.79015500  1
  C  C242  1  0.61827100  0.51829200  0.74038700  1
  C  C243  1  0.66260900  0.51824900  0.73166000  1
  C  C244  1  0.67865800  0.53248100  0.69151900  1
  C  C245  1  0.65305600  0.54611900  0.65765700  1
  C  C246  1  0.60820100  0.54952700  0.66618800  1
  C  C247  1  0.95099000  0.03219300  0.95647000  1
  C  C248  1  0.29901000  0.18417200  0.70647000  1
  C  C249  1  0.58960400  0.53241400  0.70611700  1
  C  C250  1  0.86380800  0.63067000  0.18914800  1
  C  C251  1  0.88162400  0.60599800  0.15521000  1
  C  C252  1  0.87118900  0.61073000  0.10809500  1
  C  C253  1  0.89018400  0.58230300  0.07277500  1
  C  C254  1  0.92503000  0.55641200  0.08124500  1
  C  C255  1  0.93765700  0.55868500  0.12737300  1
  C  C256  1  0.91850800  0.58036900  0.16217600  1
  C  C257  1  0.84008500  0.63933200  0.09364900  1
  C  C258  1  0.82112000  0.66501800  0.12744700  1
  C  C259  1  0.83265100  0.66007500  0.17382300  1
  C  C260  1  0.87816600  0.63077200  0.24163300  1
  C  C261  1  0.89508200  0.59186400  0.27115500  1
  C  C262  1  0.91159800  0.59300200  0.31488100  1
  C  C263  1  0.92752400  0.55159900  0.32587200  1
  C  C264  1  0.91315600  0.52542600  0.29015500  1
  C  C265  1  0.21780700  0.18417200  0.79353000  1
  C  C266  1  0.89854700  0.46489000  0.24038700  1
  C  C267  1  0.85420900  0.46493300  0.23166000  1
  C  C268  1  0.83816000  0.45070100  0.19151900  1
  C  C269  1  0.86376200  0.43706300  0.15765700  1
  C  C270  1  0.90861700  0.43365600  0.16618800  1
  C  C271  1  0.92721400  0.45076900  0.20611700  1
  C  C272  1  0.39748800  0.09699000  0.56085200  1
  C  C273  1  0.37281600  0.11480700  0.59479000  1
  C  C274  1  0.37754800  0.10437100  0.64190500  1
  C  C275  1  0.34912000  0.12336600  0.67722500  1
  C  C276  1  0.32323000  0.15821200  0.66875500  1
  C  C277  1  0.32550300  0.17083900  0.62262700  1
  C  C278  1  0.34718700  0.15169100  0.58782400  1
  C  C279  1  0.40615000  0.07326800  0.65635100  1
  C  C280  1  0.43183600  0.05430200  0.62255300  1
  C  C281  1  0.42689300  0.06583300  0.57617700  1
  C  C282  1  0.39758900  0.11134900  0.50836700  1
  C  C283  1  0.35868200  0.12826400  0.47884500  1
  C  C284  1  0.35982000  0.14478000  0.43511900  1
  C  C285  1  0.31841700  0.16070600  0.42412800  1
  C  C286  1  0.29224400  0.14633800  0.45984500  1
  C  C287  1  0.23170800  0.13172900  0.50961300  1
  C  C288  1  0.23175100  0.08739100  0.51834000  1
  C  C289  1  0.21751900  0.07134200  0.55848100  1
  C  C290  1  0.20388100  0.09694400  0.59234300  1
  C  C291  1  0.20047300  0.14179900  0.58381200  1
  C  C292  1  0.21758600  0.16039600  0.54388300  1
  C  C293  1  0.71780700  0.29901000  0.70647000  1
  C  C294  1  0.11933000  0.88619200  0.06085200  1
  C  C295  1  0.14400200  0.86837600  0.09479000  1
  C  C296  1  0.13927000  0.87881100  0.14190500  1
  C  C297  1  0.16769700  0.85981600  0.17722500  1
  C  C298  1  0.19358800  0.82497000  0.16875500  1
  C  C299  1  0.19131500  0.81234300  0.12262700  1
  C  C300  1  0.16963100  0.83149200  0.08782400  1
  C  C301  1  0.11066800  0.90991500  0.15635100  1
  C  C302  1  0.08498200  0.92888000  0.12255300  1
  C  C303  1  0.08992500  0.91734900  0.07617700  1
  C  C304  1  0.11922800  0.87183400  0.00836700  1
  C  C305  1  0.15813600  0.85491800  0.97884500  1
  C  C306  1  0.15699800  0.83840200  0.93511900  1
  C  C307  1  0.19840100  0.82247600  0.92412800  1
  C  C308  1  0.22457400  0.83684400  0.95984500  1
  C  C309  1  0.28511000  0.85145300  0.00961300  1
  C  C310  1  0.28506700  0.89579100  0.01834000  1
  C  C311  1  0.29929900  0.91184000  0.05848100  1
  C  C312  1  0.31293700  0.88623800  0.09234300  1
  C  C313  1  0.31634400  0.84138300  0.08381200  1
  C  C314  1  0.29923100  0.82278600  0.04388300  1
  C  C315  1  0.79901000  0.29901000  0.79353000  1
  C  C316  1  0.86380800  0.35251200  0.81085200  1
  C  C317  1  0.88162400  0.37718400  0.84479000  1
  C  C318  1  0.87118900  0.37245200  0.89190500  1
  C  C319  1  0.89018400  0.40088000  0.92722500  1
  C  C320  1  0.92503000  0.42677000  0.91875500  1
  C  C321  1  0.93765700  0.42449700  0.87262700  1
  C  C322  1  0.91850800  0.40281300  0.83782400  1
  C  C323  1  0.84008500  0.34385000  0.90635100  1
  C  C324  1  0.82112000  0.31816400  0.87255300  1
  C  C325  1  0.83265100  0.32310700  0.82617700  1
  C  C326  1  0.87816600  0.35241100  0.75836700  1
  C  C327  1  0.89508200  0.39131800  0.72884500  1
  C  C328  1  0.91159800  0.39018000  0.68511900  1
  C  C329  1  0.92752400  0.43158300  0.67412800  1
  C  C330  1  0.91315600  0.45775600  0.70984500  1
  C  C331  1  0.89854700  0.51829200  0.75961300  1
  C  C332  1  0.85420900  0.51824900  0.76834000  1
  C  C333  1  0.79901000  0.18417200  0.79353000  1
  C  C334  1  0.83816000  0.53248100  0.80848100  1
  C  C335  1  0.86376200  0.54611900  0.84234300  1
  C  C336  1  0.90861700  0.54952700  0.83381200  1
  C  C337  1  0.92721400  0.53241400  0.79388300  1
  C  C338  1  0.65301000  0.63067000  0.31085200  1
  C  C339  1  0.63519300  0.60599800  0.34479000  1
  C  C340  1  0.64562900  0.61073000  0.39190500  1
  C  C341  1  0.62663400  0.58230300  0.42722500  1
  C  C342  1  0.59178800  0.55641200  0.41875500  1
  C  C343  1  0.57916100  0.55868500  0.37262700  1
  C  C344  1  0.59830900  0.58036900  0.33782400  1
  C  C345  1  0.67673200  0.63933200  0.40635100  1
  C  C346  1  0.69569800  0.66501800  0.37255300  1
  C  C347  1  0.68416700  0.66007500  0.32617700  1
  C  C348  1  0.63865100  0.63077200  0.25836700  1
  C  C349  1  0.62173600  0.59186400  0.22884500  1
  C  C350  1  0.71780700  0.18417200  0.70647000  1
  C  C351  1  0.60522000  0.59300200  0.18511900  1
  C  C352  1  0.58929400  0.55159900  0.17412800  1
  C  C353  1  0.60366200  0.52542600  0.20984500  1
  C  C354  1  0.61827100  0.46489000  0.25961300  1
  C  C355  1  0.66260900  0.46493300  0.26834000  1
  C  C356  1  0.67865800  0.45070100  0.30848100  1
  C  C357  1  0.65305600  0.43706300  0.34234300  1
  C  C358  1  0.60820100  0.43365600  0.33381200  1
  C  C359  1  0.58960400  0.45076900  0.29388300  1
  C  C360  1  0.79901000  0.68417200  0.20647000  1
  C  C361  1  0.71780700  0.68417200  0.29353000  1
  C  C362  1  0.71780700  0.79901000  0.29353000  1
  C  C363  1  0.06582800  0.03219300  0.95647000  1
  C  C364  1  0.79901000  0.79901000  0.20647000  1
  C  C365  1  0.45099000  0.45099000  0.54353000  1
  C  C366  1  0.45099000  0.53219300  0.45647000  1
  C  C367  1  0.56582800  0.53219300  0.45647000  1
  C  C368  1  0.56582800  0.45099000  0.54353000  1
  Cl  Cl1  1  0.72102800  0.96528000  0.06972200  1
  Cl  Cl2  1  0.67980300  0.80972200  0.12498300  1
  Cl  Cl3  1  0.79579000  0.01790300  0.56972200  1
  Cl  Cl4  1  0.83701500  0.17346000  0.62498300  1
  Cl  Cl5  1  0.28472000  0.45421000  0.31972200  1
  Cl  Cl6  1  0.44027800  0.41298500  0.37498300  1
  Cl  Cl7  1  0.23209700  0.52897200  0.81972200  1
  Cl  Cl8  1  0.07654000  0.57019700  0.87498300  1
  Cl  Cl9  1  0.79579000  0.96528000  0.43027800  1
  Cl  Cl10  1  0.83701500  0.80972200  0.37501700  1
  Cl  Cl11  1  0.72102800  0.01790300  0.93027800  1
  Cl  Cl12  1  0.67980300  0.17346000  0.87501700  1
  Cl  Cl13  1  0.23209700  0.45421000  0.18027800  1
  Cl  Cl14  1  0.07654000  0.41298500  0.12501700  1
  Cl  Cl15  1  0.28472000  0.52897200  0.68027800  1
  Cl  Cl16  1  0.44027800  0.57019700  0.62501700  1
  Cl  Cl17  1  0.29579000  0.01790300  0.93027800  1
  Cl  Cl18  1  0.33701500  0.17346000  0.87501700  1
  Cl  Cl19  1  0.22102800  0.96528000  0.43027800  1
  Cl  Cl20  1  0.17980300  0.80972200  0.37501700  1
  Cl  Cl21  1  0.73209700  0.52897200  0.68027800  1
  Cl  Cl22  1  0.57654000  0.57019700  0.62501700  1
  Cl  Cl23  1  0.78472000  0.45421000  0.18027800  1
  Cl  Cl24  1  0.94027800  0.41298500  0.12501700  1
  Cl  Cl25  1  0.22102800  0.01790300  0.56972200  1
  Cl  Cl26  1  0.17980300  0.17346000  0.62498300  1
  Cl  Cl27  1  0.29579000  0.96528000  0.06972200  1
  Cl  Cl28  1  0.33701500  0.80972200  0.12498300  1
  Cl  Cl29  1  0.78472000  0.52897200  0.81972200  1
  Cl  Cl30  1  0.94027800  0.57019700  0.87498300  1
  Cl  Cl31  1  0.73209700  0.45421000  0.31972200  1
  Cl  Cl32  1  0.57654000  0.41298500  0.37498300  1
  O  O1  1  0.05194000  0.99831700  0.94120900  1
  O  O2  1  0.05194000  0.49831700  0.05879100  1
  O  O3  1  0.05194000  0.54642700  0.00721100  1
  O  O4  1  0.05194000  0.43675500  0.99278900  1
  O  O5  1  0.05194000  0.48486500  0.94120900  1
  O  O6  1  0.96487800  0.43675500  0.99278900  1
  O  O7  1  0.96487800  0.48486500  0.94120900  1
  O  O8  1  0.96487800  0.49831700  0.05879100  1
  O  O9  1  0.96487800  0.54642700  0.00721100  1
  O  O10  1  0.05194000  0.98486500  0.05879100  1
  O  O11  1  0.93169700  0.87131200  0.98708100  1
  O  O12  1  0.05194000  0.93675500  0.00721100  1
  O  O13  1  0.74903500  0.83564700  0.96765100  1
  O  O14  1  0.81511700  0.85888200  0.99297000  1
  O  O15  1  0.58512000  0.11187100  0.48708100  1
  O  O16  1  0.76778300  0.14753500  0.46765100  1
  O  O17  1  0.55194000  0.99831700  0.55879100  1
  O  O18  1  0.70170000  0.12430100  0.49297000  1
  O  O19  1  0.55194000  0.04642700  0.50721100  1
  O  O20  1  0.55194000  0.93675500  0.49278900  1
  O  O21  1  0.37868800  0.66488000  0.23708100  1
  O  O22  1  0.41435300  0.48221700  0.21765100  1
  O  O23  1  0.55194000  0.98486500  0.44120900  1
  O  O24  1  0.39111800  0.54830000  0.24297000  1
  O  O25  1  0.46487800  0.93675500  0.49278900  1
  O  O26  1  0.13812900  0.31830300  0.73708100  1
  O  O27  1  0.46487800  0.98486500  0.44120900  1
  O  O28  1  0.10246500  0.50096500  0.71765100  1
  O  O29  1  0.12569900  0.43488300  0.74297000  1
  O  O30  1  0.46487800  0.99831700  0.55879100  1
  O  O31  1  0.46487800  0.04642700  0.50721100  1
  O  O32  1  0.58512000  0.87131200  0.51291900  1
  O  O33  1  0.76778300  0.83564700  0.53234900  1
  O  O34  1  0.70170000  0.85888200  0.50703000  1
  O  O35  1  0.96487800  0.98486500  0.05879100  1
  O  O36  1  0.93169700  0.11187100  0.01291900  1
  O  O37  1  0.26513500  0.69806000  0.30879100  1
  O  O38  1  0.74903500  0.14753500  0.03234900  1
  O  O39  1  0.31324500  0.69806000  0.25721100  1
  O  O40  1  0.81511700  0.12430100  0.00703000  1
  O  O41  1  0.20357300  0.69806000  0.24278900  1
  O  O42  1  0.13812900  0.66488000  0.26291900  1
  O  O43  1  0.10246500  0.48221700  0.28234900  1
  O  O44  1  0.25168300  0.69806000  0.19120900  1
  O  O45  1  0.12569900  0.54830000  0.25703000  1
  O  O46  1  0.20357300  0.78512200  0.24278900  1
  O  O47  1  0.25168300  0.78512200  0.19120900  1
  O  O48  1  0.37868800  0.31830300  0.76291900  1
  O  O49  1  0.41435300  0.50096500  0.78234900  1
  O  O50  1  0.39111800  0.43488300  0.75703000  1
  O  O51  1  0.96487800  0.93675500  0.00721100  1
  O  O52  1  0.26513500  0.78512200  0.30879100  1
  O  O53  1  0.31324500  0.78512200  0.25721100  1
  O  O54  1  0.08512000  0.11187100  0.01291900  1
  O  O55  1  0.26778300  0.14753500  0.03234900  1
  O  O56  1  0.20170000  0.12430100  0.00703000  1
  O  O57  1  0.25168300  0.28512200  0.80879100  1
  O  O58  1  0.43169700  0.87131200  0.51291900  1
  O  O59  1  0.24903500  0.83564700  0.53234900  1
  O  O60  1  0.20357300  0.28512200  0.75721100  1
  O  O61  1  0.31511700  0.85888200  0.50703000  1
  O  O62  1  0.31324500  0.28512200  0.74278900  1
  O  O63  1  0.63812900  0.31830300  0.76291900  1
  O  O64  1  0.26513500  0.28512200  0.69120900  1
  O  O65  1  0.60246500  0.50096500  0.78234900  1
  O  O66  1  0.62569900  0.43488300  0.75703000  1
  O  O67  1  0.31324500  0.19806000  0.74278900  1
  O  O68  1  0.26513500  0.19806000  0.69120900  1
  O  O69  1  0.87868800  0.66488000  0.26291900  1
  O  O70  1  0.91435300  0.48221700  0.28234900  1
  O  O71  1  0.89111800  0.54830000  0.25703000  1
  O  O72  1  0.25168300  0.19806000  0.80879100  1
  O  O73  1  0.20357300  0.19806000  0.75721100  1
  O  O74  1  0.43169700  0.11187100  0.48708100  1
  O  O75  1  0.24903500  0.14753500  0.46765100  1
  O  O76  1  0.31511700  0.12430100  0.49297000  1
  O  O77  1  0.75168300  0.28512200  0.69120900  1
  O  O78  1  0.08512000  0.87131200  0.98708100  1
  O  O79  1  0.96487800  0.04642700  0.99278900  1
  O  O80  1  0.70357300  0.28512200  0.74278900  1
  O  O81  1  0.26778300  0.83564700  0.96765100  1
  O  O82  1  0.20170000  0.85888200  0.99297000  1
  O  O83  1  0.81324500  0.28512200  0.75721100  1
  O  O84  1  0.76513500  0.28512200  0.80879100  1
  O  O85  1  0.87868800  0.31830300  0.73708100  1
  O  O86  1  0.91435300  0.50096500  0.71765100  1
  O  O87  1  0.89111800  0.43488300  0.74297000  1
  O  O88  1  0.81324500  0.19806000  0.75721100  1
  O  O89  1  0.76513500  0.19806000  0.80879100  1
  O  O90  1  0.63812900  0.66488000  0.23708100  1
  O  O91  1  0.60246500  0.48221700  0.21765100  1
  O  O92  1  0.75168300  0.19806000  0.69120900  1
  O  O93  1  0.62569900  0.54830000  0.24297000  1
  O  O94  1  0.70357300  0.19806000  0.74278900  1
  O  O95  1  0.96487800  0.99831700  0.94120900  1
  O  O96  1  0.76513500  0.69806000  0.19120900  1
  O  O97  1  0.81324500  0.69806000  0.24278900  1
  O  O98  1  0.70357300  0.69806000  0.25721100  1
  O  O99  1  0.75168300  0.69806000  0.30879100  1
  O  O100  1  0.70357300  0.78512200  0.25721100  1
  O  O101  1  0.75168300  0.78512200  0.30879100  1
  O  O102  1  0.76513500  0.78512200  0.19120900  1
  O  O103  1  0.81324500  0.78512200  0.24278900  1
  O  O104  1  0.46487800  0.48486500  0.55879100  1
  O  O105  1  0.46487800  0.43675500  0.50721100  1
  O  O106  1  0.05194000  0.04642700  0.99278900  1
  O  O107  1  0.46487800  0.54642700  0.49278900  1
  O  O108  1  0.46487800  0.49831700  0.44120900  1
  O  O109  1  0.55194000  0.54642700  0.49278900  1
  O  O110  1  0.55194000  0.49831700  0.44120900  1
  O  O111  1  0.55194000  0.48486500  0.55879100  1
  O  O112  1  0.55194000  0.43675500  0.50721100  1
