# generated using pymatgen
data_CuH14C19N5O4
_symmetry_space_group_name_H-M   'P 1'
_cell_length_a   14.85350000
_cell_length_b   12.81140000
_cell_length_c   11.29570000
_cell_angle_alpha   88.71550000
_cell_angle_beta   85.91050000
_cell_angle_gamma   83.83600000
_symmetry_Int_Tables_number   1
_chemical_formula_structural   CuH14C19N5O4
_chemical_formula_sum   'Cu2 H28 C38 N10 O8'
_cell_volume   2131.40092364
_cell_formula_units_Z   2
loop_
 _symmetry_equiv_pos_site_id
 _symmetry_equiv_pos_as_xyz
  1  'x, y, z'
loop_
 _atom_site_type_symbol
 _atom_site_label
 _atom_site_symmetry_multiplicity
 _atom_site_fract_x
 _atom_site_fract_y
 _atom_site_fract_z
 _atom_site_occupancy
  Cu  Cu1  1  0.22710000  0.14213000  0.00010000  1
  Cu  Cu2  1  0.21296000  0.15873000  0.23252000  1
  H  H1  1  0.82125000  0.08724000  0.72021000  1
  H  H2  1  0.88367000  0.18472000  0.77441000  1
  H  H3  1  0.67510000  0.08433000  0.72035000  1
  H  H4  1  0.58583000  0.17820000  0.77521000  1
  H  H5  1  0.85490000  0.12984000  0.46054000  1
  H  H6  1  0.76017000  0.21900000  0.50995000  1
  H  H7  1  0.63196000  0.13407000  0.51913000  1
  H  H8  1  0.54430000  0.21478000  0.45129000  1
  H  H9  1  0.95826000  0.14153000  0.92141000  1
  H  H10  1  0.50545000  0.13157000  0.92248000  1
  H  H11  1  0.48180000  0.15933000  0.31120000  1
  H  H12  1  0.93461000  0.16929000  0.31015000  1
  H  H13  1  0.27138000  0.72245000  0.82048000  1
  H  H14  1  0.23008000  0.60916000  0.76745000  1
  H  H15  1  0.18828000  0.69495000  0.46483000  1
  H  H16  1  0.23159000  0.56897000  0.41317000  1
  H  H17  1  0.23323000  0.82041000  0.95608000  1
  H  H18  1  0.23050000  0.45270000  0.88781000  1
  H  H19  1  0.20684000  0.48044000  0.27654000  1
  H  H20  1  0.20957000  0.84817000  0.34482000  1
  H  H21  1  0.07332000  0.37161000  0.70388000  1
  H  H22  1  0.01617000  0.37256000  0.57180000  1
  H  H23  1  0.40921000  0.91159000  0.66263000  1
  H  H24  1  0.40931000  0.97766000  0.52353000  1
  H  H25  1  0.12811000  0.25820000  0.81123000  1
  H  H26  1  0.09268000  0.29980000  0.39360000  1
  H  H27  1  0.31196000  0.04267000  0.42138000  1
  H  H28  1  0.34738000  0.00106000  0.83904000  1
  C  C1  1  0.53844000  0.13863000  0.00962000  1
  C  C2  1  0.52540000  0.15394000  0.22389000  1
  C  C3  1  0.61945000  0.15601000  0.22367000  1
  C  C4  1  0.67300000  0.14939000  0.11643000  1
  C  C5  1  0.63250000  0.14070000  0.00940000  1
  C  C6  1  0.65996000  0.16469000  0.33069000  1
  C  C7  1  0.75402000  0.16676000  0.33048000  1
  C  C8  1  0.80757000  0.16015000  0.22323000  1
  C  C9  1  0.76706000  0.15146000  0.11620000  1
  C  C10  1  0.82061000  0.14485000  0.00896000  1
  C  C11  1  0.78010000  0.13617000  0.90193000  1
  C  C12  1  0.68605000  0.13409000  0.90216000  1
  C  C13  1  0.90163000  0.16223000  0.22301000  1
  C  C14  1  0.91467000  0.14692000  0.00874000  1
  C  C15  1  0.05528000  0.15781000  0.11552000  1
  C  C16  1  0.95518000  0.15561000  0.11576000  1
  C  C17  1  0.38478000  0.14305000  0.11711000  1
  C  C18  1  0.48489000  0.14525000  0.11687000  1
  C  C19  1  0.22912000  0.61180000  0.95855000  1
  C  C20  1  0.22632000  0.50315000  0.97027000  1
  C  C21  1  0.21328000  0.51845000  0.18454000  1
  C  C22  1  0.21608000  0.62709000  0.17281000  1
  C  C23  1  0.22400000  0.67376000  0.05981000  1
  C  C24  1  0.22679000  0.78241000  0.04809000  1
  C  C25  1  0.21375000  0.79770000  0.26235000  1
  C  C26  1  0.21095000  0.68906000  0.27408000  1
  C  C27  1  0.22464000  0.96001000  0.13688000  1
  C  C28  1  0.22167000  0.84438000  0.14936000  1
  C  C29  1  0.21542000  0.34085000  0.09575000  1
  C  C30  1  0.21840000  0.45648000  0.08327000  1
  C  C31  1  0.13127000  0.25452000  0.57390000  1
  C  C32  1  0.13882000  0.24569000  0.45019000  1
  C  C33  1  0.25968000  0.10396000  0.46551000  1
  C  C34  1  0.25214000  0.11279000  0.58922000  1
  C  C35  1  0.18793000  0.18807000  0.64341000  1
  C  C36  1  0.18039000  0.19690000  0.76712000  1
  C  C37  1  0.30125000  0.05518000  0.78243000  1
  C  C38  1  0.30879000  0.04634000  0.65873000  1
  N  N1  1  0.83366000  0.13389000  0.79050000  1
  N  N2  1  0.64501000  0.12975000  0.79095000  1
  N  N3  1  0.79430000  0.17390000  0.44145000  1
  N  N4  1  0.60663000  0.16869000  0.44202000  1
  N  N5  1  0.24081000  0.65410000  0.84015000  1
  N  N6  1  0.20623000  0.64571000  0.39259000  1
  N  N7  1  0.06639000  0.33607000  0.62348000  1
  N  N8  1  0.37839000  0.97015000  0.60857000  1
  N  N9  1  0.23705000  0.13045000  0.83663000  1
  N  N10  1  0.20301000  0.17041000  0.39599000  1
  O  O1  1  0.09513000  0.15119000  0.01255000  1
  O  O2  1  0.08261000  0.16589000  0.21833000  1
  O  O3  1  0.34493000  0.14968000  0.22007000  1
  O  O4  1  0.35745000  0.13495000  0.01430000  1
  O  O5  1  0.21938000  0.00616000  0.23558000  1
  O  O6  1  0.23190000  0.99146000  0.02980000  1
  O  O7  1  0.22069000  0.29470000  0.99705000  1
  O  O8  1  0.20816000  0.30940000  0.20283000  1
