# generated using pymatgen
data_CuH19C23N3O7
_symmetry_space_group_name_H-M   'P 1'
_cell_length_a   14.97150000
_cell_length_b   14.85350000
_cell_length_c   11.29570000
_cell_angle_alpha   94.11690000
_cell_angle_beta   85.90990000
_cell_angle_gamma   83.62140000
_symmetry_Int_Tables_number   1
_chemical_formula_structural   CuH19C23N3O7
_chemical_formula_sum   'Cu2 H38 C46 N6 O14'
_cell_volume   2481.95592186
_cell_formula_units_Z   2
loop_
 _symmetry_equiv_pos_site_id
 _symmetry_equiv_pos_as_xyz
  1  'x, y, z'
loop_
 _atom_site_type_symbol
 _atom_site_label
 _atom_site_symmetry_multiplicity
 _atom_site_fract_x
 _atom_site_fract_y
 _atom_site_fract_z
 _atom_site_occupancy
  Cu  Cu1  1  0.20450000  0.16634000  0.98990000  1
  Cu  Cu2  1  0.19032000  0.18071000  0.22411000  1
  H  H1  1  0.42310000  0.19778000  0.50469000  1
  H  H2  1  0.51083000  0.25741000  0.44226000  1
  H  H3  1  0.52766000  0.13362000  0.44680000  1
  H  H4  1  0.82659000  0.25540000  0.44652000  1
  H  H5  1  0.92439000  0.19854000  0.50430000  1
  H  H6  1  0.84407000  0.13115000  0.44233000  1
  H  H7  1  0.76689000  0.10568000  0.71832000  1
  H  H8  1  0.87923000  0.08729000  0.76364000  1
  H  H9  1  0.81876000  0.20195000  0.77415000  1
  H  H10  1  0.59988000  0.33366000  0.00354000  1
  H  H11  1  0.69955000  0.32690000  0.90203000  1
  H  H12  1  0.58971000  0.33350000  0.84549000  1
  H  H13  1  0.74480000  0.18669000  0.30288000  1
  H  H14  1  0.62629000  0.18441000  0.30287000  1
  H  H15  1  0.48077000  0.15717000  0.91112000  1
  H  H16  1  0.93778000  0.16586000  0.91114000  1
  H  H17  1  0.14327000  0.77547000  0.50994000  1
  H  H18  1  0.22697000  0.83695000  0.44520000  1
  H  H19  1  0.14077000  0.62935000  0.51011000  1
  H  H20  1  0.22136000  0.53918000  0.44510000  1
  H  H21  1  0.17962000  0.80848000  0.76500000  1
  H  H22  1  0.25616000  0.71289000  0.70595000  1
  H  H23  1  0.18323000  0.58547000  0.70595000  1
  H  H24  1  0.25256000  0.49707000  0.76507000  1
  H  H25  1  0.18982000  0.91191000  0.30287000  1
  H  H26  1  0.18127000  0.45919000  0.30287000  1
  H  H27  1  0.20499000  0.43515000  0.91115000  1
  H  H28  1  0.21354000  0.88786000  0.91113000  1
  H  H29  1  0.02466000  0.43126000  0.52666000  1
  H  H30  1  0.94055000  0.43347000  0.64881000  1
  H  H31  1  0.94241000  0.34878000  0.52664000  1
  H  H32  1  0.45426000  0.91359000  0.56519000  1
  H  H33  1  0.37016000  0.91579000  0.68734000  1
  H  H34  1  0.45241000  0.99828000  0.68736000  1
  H  H35  1  0.10521000  0.26682000  0.81356000  1
  H  H36  1  0.06968000  0.30283000  0.40043000  1
  H  H37  1  0.28960000  0.08024000  0.40042000  1
  H  H38  1  0.32514000  0.04423000  0.81359000  1
  C  C1  1  0.88140000  0.18377000  0.21497000  1
  C  C2  1  0.78810000  0.18200000  0.21496000  1
  C  C3  1  0.74799000  0.17449000  0.10701000  1
  C  C4  1  0.80118000  0.16876000  0.99904000  1
  C  C5  1  0.89448000  0.17054000  0.99905000  1
  C  C6  1  0.60672000  0.16506000  0.99904000  1
  C  C7  1  0.51342000  0.16328000  0.99903000  1
  C  C8  1  0.50034000  0.17652000  0.21495000  1
  C  C9  1  0.59363000  0.17830000  0.21496000  1
  C  C10  1  0.64682000  0.17257000  0.10700000  1
  C  C11  1  0.47890000  0.19346000  0.43372000  1
  C  C12  1  0.87706000  0.19403000  0.43351000  1
  C  C13  1  0.81282000  0.12885000  0.78403000  1
  C  C14  1  0.63123000  0.30506000  0.91450000  1
  C  C15  1  0.03388000  0.17993000  0.10701000  1
  C  C16  1  0.93459000  0.17804000  0.10702000  1
  C  C17  1  0.36093000  0.16712000  0.10699000  1
  C  C18  1  0.46023000  0.16901000  0.10699000  1
  C  C19  1  0.18731000  0.49208000  0.21497000  1
  C  C20  1  0.20038000  0.47883000  0.99905000  1
  C  C21  1  0.20217000  0.57286000  0.99904000  1
  C  C22  1  0.19652000  0.62651000  0.10700000  1
  C  C23  1  0.18909000  0.58612000  0.21497000  1
  C  C24  1  0.20958000  0.61325000  0.89108000  1
  C  C25  1  0.21136000  0.70729000  0.89107000  1
  C  C26  1  0.20572000  0.76094000  0.99903000  1
  C  C27  1  0.19830000  0.72055000  0.10700000  1
  C  C28  1  0.19265000  0.77419000  0.21496000  1
  C  C29  1  0.18523000  0.73380000  0.32293000  1
  C  C30  1  0.18345000  0.63977000  0.32292000  1
  C  C31  1  0.20750000  0.85498000  0.99903000  1
  C  C32  1  0.19443000  0.86824000  0.21496000  1
  C  C33  1  0.20374000  0.00871000  0.10700000  1
  C  C34  1  0.20186000  0.90862000  0.10699000  1
  C  C35  1  0.19107000  0.33835000  0.10701000  1
  C  C36  1  0.19296000  0.43843000  0.10701000  1
  C  C37  1  0.10839000  0.26363000  0.57583000  1
  C  C38  1  0.11595000  0.25599000  0.45117000  1
  C  C39  1  0.23717000  0.13330000  0.45118000  1
  C  C40  1  0.22961000  0.14094000  0.57584000  1
  C  C41  1  0.16521000  0.20611000  0.63816000  1
  C  C42  1  0.15765000  0.21376000  0.76282000  1
  C  C43  1  0.27887000  0.09107000  0.76283000  1
  C  C44  1  0.28643000  0.08342000  0.63817000  1
  C  C45  1  0.98541000  0.38808000  0.58194000  1
  C  C46  1  0.40941000  0.95898000  0.63206000  1
  N  N1  1  0.18331000  0.78742000  0.43460000  1
  N  N2  1  0.17975000  0.59880000  0.43460000  1
  N  N3  1  0.21746000  0.74746000  0.77933000  1
  N  N4  1  0.21298000  0.55985000  0.77932000  1
  N  N5  1  0.21448000  0.15623000  0.82516000  1
  N  N6  1  0.18034000  0.19082000  0.38884000  1
  O  O1  1  0.44251000  0.18292000  0.32072000  1
  O  O2  1  0.92689000  0.19056000  0.32034000  1
  O  O3  1  0.77603000  0.11504000  0.90113000  1
  O  O4  1  0.63825000  0.20772000  0.89971000  1
  O  O5  1  0.07348000  0.17420000  0.00333000  1
  O  O6  1  0.06093000  0.18693000  0.21069000  1
  O  O7  1  0.32133000  0.17285000  0.21068000  1
  O  O8  1  0.33389000  0.16013000  0.00331000  1
  O  O9  1  0.19810000  0.04865000  0.21068000  1
  O  O10  1  0.21065000  0.03593000  0.00331000  1
  O  O11  1  0.19673000  0.29840000  0.00332000  1
  O  O12  1  0.18415000  0.31113000  0.21069000  1
  O  O13  1  0.04435000  0.32843000  0.64295000  1
  O  O14  1  0.35047000  0.01863000  0.57105000  1
