# generated using pymatgen
data_CuH13C23N5O5F2
_symmetry_space_group_name_H-M   'P 1'
_cell_length_a   15.62520000
_cell_length_b   19.18890000
_cell_length_c   14.58630000
_cell_angle_alpha   89.99600000
_cell_angle_beta   71.92890000
_cell_angle_gamma   83.71150000
_symmetry_Int_Tables_number   1
_chemical_formula_structural   CuH13C23N5O5F2
_chemical_formula_sum   'Cu2 H26 C46 N10 O10 F4'
_cell_volume   4130.00729596
_cell_formula_units_Z   2
loop_
 _symmetry_equiv_pos_site_id
 _symmetry_equiv_pos_as_xyz
  1  'x, y, z'
loop_
 _atom_site_type_symbol
 _atom_site_label
 _atom_site_symmetry_multiplicity
 _atom_site_fract_x
 _atom_site_fract_y
 _atom_site_fract_z
 _atom_site_occupancy
  Cu  Cu1  1  0.21419000  0.16367000  0.02209000  1
  Cu  Cu2  1  0.21422000  0.16367000  0.20241000  1
  H  H1  1  0.91488000  0.24987000  0.03112000  1
  H  H2  1  0.01897000  0.19740000  0.02203000  1
  H  H3  1  0.64227000  0.14041000  0.44660000  1
  H  H4  1  0.54491000  0.17379000  0.41665000  1
  H  H5  1  0.40957000  0.12958000  0.20229000  1
  H  H6  1  0.51379000  0.07710000  0.19281000  1
  H  H7  1  0.88012000  0.17269000  0.80809000  1
  H  H8  1  0.79414000  0.13409000  0.77779000  1
  H  H9  1  0.88477000  0.16618000  0.97242000  1
  H  H10  1  0.65839000  0.16285000  0.81375000  1
  H  H11  1  0.48782000  0.16033000  0.87048000  1
  H  H12  1  0.54364000  0.16115000  0.25208000  1
  H  H13  1  0.77001000  0.16449000  0.41074000  1
  H  H14  1  0.94059000  0.16701000  0.35402000  1
  H  H15  1  0.21972000  0.95173000  0.26123000  1
  H  H16  1  0.21715000  0.81964000  0.96048000  1
  H  H17  1  0.20874000  0.37557000  0.26485000  1
  H  H18  1  0.21120000  0.50773000  0.96243000  1
  H  H19  1  0.36373000  0.98404000  0.55072000  1
  H  H20  1  0.44623000  0.04790000  0.52330000  1
  H  H21  1  0.44040000  0.98855000  0.43077000  1
  H  H22  1  0.98218000  0.27944000  0.70120000  1
  H  H23  1  0.06468000  0.34329000  0.67378000  1
  H  H24  1  0.98801000  0.33879000  0.79373000  1
  H  H25  1  0.10291000  0.24985000  0.56216000  1
  H  H26  1  0.32551000  0.07748000  0.66234000  1
  C  C1  1  0.62013000  0.16228000  0.89417000  1
  C  C2  1  0.52610000  0.16090000  0.92544000  1
  C  C3  1  0.52613000  0.16090000  0.09166000  1
  C  C4  1  0.62017000  0.16229000  0.06040000  1
  C  C5  1  0.66716000  0.16298000  0.96165000  1
  C  C6  1  0.66719000  0.16298000  0.12788000  1
  C  C7  1  0.76122000  0.16437000  0.09662000  1
  C  C8  1  0.80821000  0.16506000  0.99787000  1
  C  C9  1  0.76118000  0.16436000  0.93038000  1
  C  C10  1  0.62020000  0.16228000  0.22663000  1
  C  C11  1  0.66722000  0.16297000  0.29411000  1
  C  C12  1  0.76125000  0.16437000  0.26285000  1
  C  C13  1  0.80825000  0.16506000  0.16410000  1
  C  C14  1  0.80828000  0.16506000  0.33034000  1
  C  C15  1  0.90230000  0.16644000  0.29907000  1
  C  C16  1  0.90227000  0.16644000  0.13284000  1
  C  C17  1  0.04937000  0.16861000  0.16705000  1
  C  C18  1  0.94930000  0.16714000  0.20032000  1
  C  C19  1  0.37904000  0.15873000  0.05744000  1
  C  C20  1  0.47911000  0.16020000  0.02417000  1
  C  C21  1  0.21915000  0.92210000  0.19373000  1
  C  C22  1  0.21775000  0.84927000  0.19420000  1
  C  C23  1  0.21705000  0.81286000  0.11131000  1
  C  C24  1  0.21772000  0.84929000  0.02797000  1
  C  C25  1  0.21910000  0.92212000  0.02751000  1
  C  C26  1  0.21288000  0.59344000  0.11268000  1
  C  C27  1  0.21555000  0.73389000  0.11180000  1
  C  C28  1  0.21069000  0.47805000  0.19652000  1
  C  C29  1  0.20929000  0.40523000  0.19698000  1
  C  C30  1  0.20926000  0.40525000  0.03075000  1
  C  C31  1  0.21065000  0.47807000  0.03029000  1
  C  C32  1  0.21137000  0.51447000  0.11318000  1
  C  C33  1  0.22129000  0.03603000  0.10990000  1
  C  C34  1  0.21982000  0.95852000  0.11040000  1
  C  C35  1  0.20711000  0.29131000  0.11459000  1
  C  C36  1  0.20859000  0.36882000  0.11410000  1
  C  C37  1  0.15285000  0.21117000  0.68062000  1
  C  C38  1  0.15286000  0.21117000  0.58463000  1
  C  C39  1  0.27556000  0.11617000  0.54388000  1
  C  C40  1  0.27556000  0.11617000  0.63986000  1
  C  C41  1  0.21419000  0.16367000  0.70823000  1
  C  C42  1  0.21421000  0.16367000  0.51626000  1
  C  C43  1  0.21423000  0.16367000  0.41219000  1
  C  C44  1  0.21418000  0.16367000  0.81231000  1
  C  C45  1  0.39941000  0.02028000  0.49635000  1
  C  C46  1  0.02900000  0.30706000  0.72814000  1
  N  N1  1  0.94844000  0.20540000  0.05171000  1
  N  N2  1  0.61534000  0.16210000  0.39460000  1
  N  N3  1  0.48009000  0.12162000  0.17254000  1
  N  N4  1  0.81387000  0.15941000  0.82984000  1
  N  N5  1  0.26616000  0.69337000  0.03311000  1
  N  N6  1  0.26485000  0.62419000  0.03355000  1
  N  N7  1  0.16227000  0.63448000  0.19137000  1
  N  N8  1  0.16359000  0.70367000  0.19093000  1
  N  N9  1  0.21417000  0.16367000  0.89526000  1
  N  N10  1  0.21424000  0.16367000  0.32923000  1
  O  O1  1  0.08293000  0.16911000  0.07606000  1
  O  O2  1  0.08296000  0.16910000  0.23571000  1
  O  O3  1  0.34547000  0.15823000  0.14843000  1
  O  O4  1  0.34544000  0.15824000  0.98879000  1
  O  O5  1  0.22180000  0.06203000  0.18956000  1
  O  O6  1  0.22177000  0.06204000  0.02991000  1
  O  O7  1  0.20661000  0.26530000  0.03494000  1
  O  O8  1  0.20663000  0.26530000  0.19459000  1
  O  O9  1  0.33570000  0.06961000  0.47131000  1
  O  O10  1  0.09270000  0.25773000  0.75319000  1
  F  F1  1  0.21828000  0.81480000  0.27526000  1
  F  F2  1  0.21957000  0.95742000  0.94677000  1
  F  F3  1  0.21253000  0.51230000  0.27713000  1
  F  F4  1  0.20841000  0.37001000  0.95047000  1
