# Generated by REPEAT Assigner based on pymatgen
data_DB6-cuf_10210
_audit_creation_date              2022-05-24
_audit_creation_method            REPEAT_Assigner
_cell_length_a                    15.944500
_cell_length_b                    16.109300
_cell_length_c                    14.472300
_cell_angle_alpha                 90.008100
_cell_angle_beta                  90.009400
_cell_angle_gamma                 83.478600
_cell_volume                      3693.226053
_symmetry_space_group_name_H-M    P1
_symmetry_Int_Tables_number       1
loop_
    _symmetry_equiv_pos_site_id
    _symmetry_equiv_pos_as_xyz
    1  x,y,z
loop_
    _atom_site_type_symbol
    _atom_site_label
    _atom_site_fract_x
    _atom_site_fract_y
    _atom_site_fract_z
    _atom_type_partial_charge
    Cu  Cu1  0.162110  0.162200  0.071230  0.852202
    Cu  Cu2  0.162130  0.162220  0.252980  0.828419
    C   C1   0.689990  0.162690  0.074590  0.141066
    C   C2   0.643270  0.093210  0.118330  0.164857
    C   C3   0.744580  0.163650  0.162100  0.419365
    C   C4   0.625150  0.230200  0.118350  0.165265
    C   C5   0.579670  0.160770  0.162110  0.411984
    C   C6   0.699100  0.094130  0.205840  0.158114
    C   C7   0.680970  0.231180  0.205850  0.160980
    C   C8   0.634280  0.161680  0.249650  0.148914
    C   C9   0.839580  0.165310  0.162100  -0.364777
    C   C10  0.484670  0.159100  0.162120  -0.364299
    F   F1   0.622790  0.022480  0.073450  -0.215139
    F   F2   0.586170  0.299920  0.073530  -0.214845
    F   F3   0.604560  0.161190  0.339340  -0.209773
    F   F4   0.719690  0.163190  0.984880  -0.207912
    F   F5   0.701390  0.301960  0.250710  -0.213230
    F   F6   0.738160  0.024410  0.250630  -0.216238
    C   C11  0.008550  0.168280  0.162100  0.674234
    C   C12  0.915300  0.166640  0.162090  -0.037232
    O   O1   0.039830  0.168830  0.081640  -0.531657
    O   O2   0.039840  0.168840  0.242560  -0.527925
    C   C13  0.315690  0.156140  0.162120  0.678331
    C   C14  0.408940  0.157780  0.162130  -0.037670
    O   O3   0.284410  0.155600  0.242570  -0.530956
    O   O4   0.284400  0.155580  0.081660  -0.531194
    C   C15  0.162880  0.705560  0.078330  0.424666
    C   C16  0.161350  0.618840  0.078340  -0.317850
    C   C17  0.161360  0.618870  0.245890  0.429738
    C   C18  0.162900  0.705580  0.245880  -0.321726
    C   C19  0.163660  0.748930  0.162100  -0.041299
    C   C20  0.160580  0.575490  0.162110  -0.041512
    C   C21  0.158920  0.481460  0.162120  0.088663
    C   C22  0.165320  0.842960  0.162100  0.092507
    N   N1   0.160610  0.576620  0.333190  -0.889237
    H   H1   0.159470  0.512200  0.338650  0.382369
    H   H2   0.161210  0.610140  0.394960  0.379711
    N   N2   0.163630  0.747800  0.991030  -0.888449
    H   H3   0.164770  0.812220  0.985570  0.384481
    H   H4   0.163030  0.714290  0.929250  0.380211
    H   H5   0.160730  0.583530  0.010120  0.187407
    H   H6   0.163520  0.740890  0.314110  0.189553
    C   C23  0.168290  0.010210  0.162100  0.806152
    C   C24  0.166650  0.917910  0.162100  -0.353621
    O   O5   0.168840  0.041180  0.242560  -0.529671
    O   O6   0.168830  0.041170  0.081650  -0.546247
    C   C25  0.155950  0.314210  0.162110  0.804441
    C   C26  0.157590  0.406510  0.162120  -0.349402
    O   O7   0.155410  0.283230  0.081660  -0.532433
    O   O8   0.155400  0.283250  0.242570  -0.543130
    C   C27  0.162120  0.162220  0.569310  -0.143653
    C   C28  0.231210  0.093990  0.608510  0.216798
    C   C29  0.231030  0.093740  0.715600  0.205646
    C   C30  0.162120  0.162200  0.754900  -0.187575
    C   C31  0.074410  0.143480  0.716000  0.219800
    C   C32  0.074820  0.143000  0.608880  0.221390
    C   C33  0.179950  0.249370  0.608810  0.214669
    C   C34  0.181940  0.248780  0.715940  0.216675
    C   C35  0.162110  0.162200  0.859790  0.240587
    C   C36  0.162130  0.162220  0.464420  0.207225
    F   F7   0.218430  0.015780  0.575210  -0.222131
    F   F8   0.010630  0.200470  0.575430  -0.219661
    F   F9   0.259830  0.267200  0.747980  -0.216424
    F   F10  0.217400  0.015550  0.748780  -0.216507
    F   F11  0.255680  0.270900  0.574470  -0.220520
    F   F12  0.011040  0.202310  0.748940  -0.214786
    H   H7   0.296220  0.104850  0.741910  0.092921
    H   H8   0.296620  0.104920  0.582770  0.091759
    H   H9   0.059140  0.079450  0.583880  0.083402
    H   H10  0.058350  0.080660  0.742820  0.085657
    H   H11  0.134890  0.301910  0.742690  0.084321
    H   H12  0.129570  0.300140  0.583460  0.086200
    N   N3   0.162110  0.162190  0.943400  -0.223188
    N   N4   0.162130  0.162230  0.380810  -0.198811
