# generated using pymatgen
data_CuH14C20N4O5F2
_symmetry_space_group_name_H-M   'P 1'
_cell_length_a   15.94450000
_cell_length_b   17.01930000
_cell_length_c   11.29570000
_cell_angle_alpha   90.23940000
_cell_angle_beta   85.92140000
_cell_angle_gamma   83.44150000
_symmetry_Int_Tables_number   1
_chemical_formula_structural   CuH14C20N4O5F2
_chemical_formula_sum   'Cu2 H28 C40 N8 O10 F4'
_cell_volume   3037.24291196
_cell_formula_units_Z   2
loop_
 _symmetry_equiv_pos_site_id
 _symmetry_equiv_pos_as_xyz
  1  'x, y, z'
loop_
 _atom_site_type_symbol
 _atom_site_label
 _atom_site_symmetry_multiplicity
 _atom_site_fract_x
 _atom_site_fract_y
 _atom_site_fract_z
 _atom_site_occupancy
  Cu  Cu1  1  0.20165000  0.15652000  0.01310000  1
  Cu  Cu2  1  0.18837000  0.16904000  0.24603000  1
  H  H1  1  0.62258000  0.98821000  0.08368000  1
  H  H2  1  0.71236000  0.98497000  0.99596000  1
  H  H3  1  0.79100000  0.05619000  0.31920000  1
  H  H4  1  0.80497000  0.99981000  0.19559000  1
  H  H5  1  0.79303000  0.19827000  0.87277000  1
  H  H6  1  0.80644000  0.09936000  0.88282000  1
  H  H7  1  0.57659000  0.32300000  0.04910000  1
  H  H8  1  0.66695000  0.32051000  0.96281000  1
  H  H9  1  0.66600000  0.33420000  0.25151000  1
  H  H10  1  0.75554000  0.28765000  0.29957000  1
  H  H11  1  0.66485000  0.17755000  0.41075000  1
  H  H12  1  0.57540000  0.22371000  0.36193000  1
  H  H13  1  0.20933000  0.91418000  0.95918000  1
  H  H14  1  0.20639000  0.53888000  0.89513000  1
  H  H15  1  0.18069000  0.41138000  0.29995000  1
  H  H16  1  0.18364000  0.78668000  0.36399000  1
  H  H17  1  0.20324000  0.66921000  0.98973000  1
  H  H18  1  0.18680000  0.65634000  0.26940000  1
  H  H19  1  0.03354000  0.38722000  0.52618000  1
  H  H20  1  0.95456000  0.38922000  0.64812000  1
  H  H21  1  0.95606000  0.31552000  0.53350000  1
  H  H22  1  0.43546000  0.93634000  0.61101000  1
  H  H23  1  0.35649000  0.93834000  0.73294000  1
  H  H24  1  0.43396000  0.01004000  0.72562000  1
  H  H25  1  0.10870000  0.24405000  0.82778000  1
  H  H26  1  0.07544000  0.27542000  0.41142000  1
  H  H27  1  0.28132000  0.08152000  0.43133000  1
  H  H28  1  0.31459000  0.05014000  0.84772000  1
  C  C1  1  0.72929000  0.15721000  0.01736000  1
  C  C2  1  0.67905000  0.09466000  0.08013000  1
  C  C3  1  0.77748000  0.16414000  0.12942000  1
  C  C4  1  0.66155000  0.22392000  0.06691000  1
  C  C5  1  0.61255000  0.16142000  0.12970000  1
  C  C6  1  0.72848000  0.10155000  0.19219000  1
  C  C7  1  0.71098000  0.23087000  0.17895000  1
  C  C8  1  0.66077000  0.16831000  0.24181000  1
  C  C9  1  0.87249000  0.16570000  0.12925000  1
  C  C10  1  0.51755000  0.15985000  0.12988000  1
  C  C11  1  0.04147000  0.16851000  0.12896000  1
  C  C12  1  0.94822000  0.16696000  0.12911000  1
  C  C13  1  0.34856000  0.15705000  0.13016000  1
  C  C14  1  0.44181000  0.15860000  0.13001000  1
  C  C15  1  0.20357000  0.88557000  0.05002000  1
  C  C16  1  0.20164000  0.80374000  0.05842000  1
  C  C17  1  0.19455000  0.76860000  0.16998000  1
  C  C18  1  0.18940000  0.81529000  0.27315000  1
  C  C19  1  0.19134000  0.89712000  0.26476000  1
  C  C20  1  0.18840000  0.52182000  0.20071000  1
  C  C21  1  0.18646000  0.43999000  0.20910000  1
  C  C22  1  0.19869000  0.42844000  0.99436000  1
  C  C23  1  0.20062000  0.51027000  0.98598000  1
  C  C24  1  0.19548000  0.55696000  0.08915000  1
  C  C25  1  0.19257000  0.68496000  0.17857000  1
  C  C26  1  0.19747000  0.64060000  0.08056000  1
  C  C27  1  0.20048000  0.01935000  0.14426000  1
  C  C28  1  0.19842000  0.93226000  0.15319000  1
  C  C29  1  0.18954000  0.30621000  0.11486000  1
  C  C30  1  0.19161000  0.39330000  0.10594000  1
  C  C31  1  0.11168000  0.24128000  0.59033000  1
  C  C32  1  0.11876000  0.23461000  0.46635000  1
  C  C33  1  0.23223000  0.12773000  0.47734000  1
  C  C34  1  0.22516000  0.13440000  0.60132000  1
  C  C35  1  0.16487000  0.19117000  0.65781000  1
  C  C36  1  0.15779000  0.19783000  0.78178000  1
  C  C37  1  0.27127000  0.09095000  0.79277000  1
  C  C38  1  0.27835000  0.08429000  0.66879000  1
  C  C39  1  0.99655000  0.34968000  0.58531000  1
  C  C40  1  0.39348000  0.97588000  0.67381000  1
  N  N1  1  0.65455000  0.01896000  0.01811000  1
  N  N2  1  0.75915000  0.03285000  0.25195000  1
  N  N3  1  0.76080000  0.14871000  0.88782000  1
  N  N4  1  0.61827000  0.28712000  0.99071000  1
  N  N5  1  0.72384000  0.30208000  0.22338000  1
  N  N6  1  0.61656000  0.17125000  0.35476000  1
  N  N7  1  0.21099000  0.14772000  0.84927000  1
  N  N8  1  0.17903000  0.17784000  0.40985000  1
  O  O1  1  0.07864000  0.16349000  0.02580000  1
  O  O2  1  0.06689000  0.17457000  0.23202000  1
  O  O3  1  0.31139000  0.16208000  0.23333000  1
  O  O4  1  0.32314000  0.15099000  0.02710000  1
  O  O5  1  0.19530000  0.05412000  0.24438000  1
  O  O6  1  0.20705000  0.04303000  0.03815000  1
  O  O7  1  0.19472000  0.27145000  0.01474000  1
  O  O8  1  0.18298000  0.28253000  0.22097000  1
  O  O9  1  0.05173000  0.29772000  0.65165000  1
  O  O10  1  0.33830000  0.02784000  0.60747000  1
  F  F1  1  0.18577000  0.77057000  0.95414000  1
  F  F2  1  0.18616000  0.94238000  0.36465000  1
  F  F3  1  0.20432000  0.55498000  0.30499000  1
  F  F4  1  0.20386000  0.38318000  0.89447000  1
