# generated using pymatgen
data_CuH16C15(N3O2)2
_symmetry_space_group_name_H-M   'P 1'
_cell_length_a   10.65460000
_cell_length_b   12.81140000
_cell_length_c   14.47230000
_cell_angle_alpha   84.57390000
_cell_angle_beta   90.00410000
_cell_angle_gamma   84.26320000
_symmetry_Int_Tables_number   1
_chemical_formula_structural   CuH16C15(N3O2)2
_chemical_formula_sum   'Cu2 H32 C30 N12 O8'
_cell_volume   1956.68166126
_cell_formula_units_Z   2
loop_
 _symmetry_equiv_pos_site_id
 _symmetry_equiv_pos_as_xyz
  1  'x, y, z'
loop_
 _atom_site_type_symbol
 _atom_site_label
 _atom_site_symmetry_multiplicity
 _atom_site_fract_x
 _atom_site_fract_y
 _atom_site_fract_z
 _atom_site_occupancy
  Cu  Cu1  1  0.11954000  0.15346000  0.12137000  1
  Cu  Cu2  1  0.11956000  0.15348000  0.30312000  1
  H  H1  1  0.84965000  0.15938000  0.38207000  1
  H  H2  1  0.70424000  0.15616000  0.44432000  1
  H  H3  1  0.38847000  0.15537000  0.04224000  1
  H  H4  1  0.53239000  0.17025000  0.98026000  1
  H  H5  1  0.50074000  0.15086000  0.36445000  1
  H  H6  1  0.73837000  0.15609000  0.06002000  1
  H  H7  1  0.16598000  0.74689000  0.98089000  1
  H  H8  1  0.10396000  0.63699000  0.93945000  1
  H  H9  1  0.10488000  0.67303000  0.48478000  1
  H  H10  1  0.16084000  0.55108000  0.44435000  1
  H  H11  1  0.12435000  0.83491000  0.08694000  1
  H  H12  1  0.11475000  0.47201000  0.03356000  1
  H  H13  1  0.11476000  0.47201000  0.33754000  1
  H  H14  1  0.12436000  0.83493000  0.39092000  1
  H  H15  1  0.79824000  0.16437000  0.63173000  1
  H  H16  1  0.87864000  0.27245000  0.62649000  1
  H  H17  1  0.79828000  0.17099000  0.78989000  1
  H  H18  1  0.88372000  0.27603000  0.77530000  1
  H  H19  1  0.26129000  0.38026000  0.60644000  1
  H  H20  1  0.34297000  0.26086000  0.63463000  1
  H  H21  1  0.27957000  0.37101000  0.76331000  1
  H  H22  1  0.26300000  0.30155000  0.86241000  1
  H  H23  1  0.29425000  0.91457000  0.65328000  1
  H  H24  1  0.13633000  0.92832000  0.66344000  1
  H  H25  1  0.24756000  0.96214000  0.89064000  1
  H  H26  1  0.12904000  0.93642000  0.82175000  1
  H  H27  1  0.31965000  0.08252000  0.79798000  1
  H  H28  1  0.32025000  0.08261000  0.63884000  1
  H  H29  1  0.96501000  0.04786000  0.64288000  1
  H  H30  1  0.96384000  0.04938000  0.80169000  1
  H  H31  1  0.07981000  0.32954000  0.77807000  1
  H  H32  1  0.07184000  0.32724000  0.61903000  1
  C  C1  1  0.68506000  0.15492000  0.29590000  1
  C  C2  1  0.55405000  0.15203000  0.29614000  1
  C  C3  1  0.55405000  0.15202000  0.12858000  1
  C  C4  1  0.68506000  0.15492000  0.12835000  1
  C  C5  1  0.88998000  0.15946000  0.21175000  1
  C  C6  1  0.75056000  0.15636000  0.21201000  1
  C  C7  1  0.34912000  0.14748000  0.21274000  1
  C  C8  1  0.48855000  0.15057000  0.21248000  1
  C  C9  1  0.11883000  0.62608000  0.08887000  1
  C  C10  1  0.11592000  0.51659000  0.09805000  1
  C  C11  1  0.11593000  0.51660000  0.26560000  1
  C  C12  1  0.11883000  0.62609000  0.25643000  1
  C  C13  1  0.12028000  0.68084000  0.16806000  1
  C  C14  1  0.12317000  0.79034000  0.15889000  1
  C  C15  1  0.12319000  0.79034000  0.32644000  1
  C  C16  1  0.12028000  0.68085000  0.33561000  1
  C  C17  1  0.12772000  0.96163000  0.22832000  1
  C  C18  1  0.12463000  0.84509000  0.23808000  1
  C  C19  1  0.11138000  0.34530000  0.19617000  1
  C  C20  1  0.11447000  0.46184000  0.18640000  1
  C  C21  1  0.11956000  0.15347000  0.61945000  1
  C  C22  1  0.22238000  0.06809000  0.66580000  1
  C  C23  1  0.22211000  0.06778000  0.77291000  1
  C  C24  1  0.11955000  0.15346000  0.80504000  1
  C  C25  1  0.98829000  0.12887000  0.76821000  1
  C  C26  1  0.98889000  0.12826000  0.66114000  1
  C  C27  1  0.14681000  0.26369000  0.64970000  1
  C  C28  1  0.14978000  0.26297000  0.75689000  1
  C  C29  1  0.11953000  0.15345000  0.90993000  1
  C  C30  1  0.11956000  0.15348000  0.51456000  1
  N  N1  1  0.75196000  0.15721000  0.38121000  1
  N  N2  1  0.48667000  0.15351000  0.04295000  1
  N  N3  1  0.12507000  0.67688000  0.99629000  1
  N  N4  1  0.12375000  0.62906000  0.42828000  1
  N  N5  1  0.88331000  0.19393000  0.61234000  1
  N  N6  1  0.88481000  0.19827000  0.80420000  1
  N  N7  1  0.26033000  0.29914000  0.60336000  1
  N  N8  1  0.26951000  0.29411000  0.79131000  1
  N  N9  1  0.21249000  0.96364000  0.63340000  1
  N  N10  1  0.21895000  0.96172000  0.82158000  1
  N  N11  1  0.11954000  0.15344000  0.99354000  1
  N  N12  1  0.11957000  0.15349000  0.43095000  1
  O  O1  1  0.93676000  0.16048000  0.13120000  1
  O  O2  1  0.93678000  0.16050000  0.29212000  1
  O  O3  1  0.30234000  0.14644000  0.29329000  1
  O  O4  1  0.30232000  0.14644000  0.13237000  1
  O  O5  1  0.12876000  0.00075000  0.30550000  1
  O  O6  1  0.12875000  0.00073000  0.14459000  1
  O  O7  1  0.11034000  0.30618000  0.11899000  1
  O  O8  1  0.11035000  0.30620000  0.27990000  1
