# generated using pymatgen
data_CuH13C26N(O3F2)2
_symmetry_space_group_name_H-M   'P 1'
_cell_length_a   14.85350000
_cell_length_b   17.01930000
_cell_length_c   13.33040000
_cell_angle_alpha   86.11960000
_cell_angle_beta   90.00460000
_cell_angle_gamma   83.50940000
_symmetry_Int_Tables_number   1
_chemical_formula_structural   CuH13C26N(O3F2)2
_chemical_formula_sum   'Cu2 H26 C52 N2 O12 F8'
_cell_volume   3340.49707279
_cell_formula_units_Z   2
loop_
 _symmetry_equiv_pos_site_id
 _symmetry_equiv_pos_as_xyz
  1  'x, y, z'
loop_
 _atom_site_type_symbol
 _atom_site_label
 _atom_site_symmetry_multiplicity
 _atom_site_fract_x
 _atom_site_fract_y
 _atom_site_fract_z
 _atom_site_occupancy
  Cu  Cu1  1  0.22548000  0.14706000  0.01899000  1
  Cu  Cu2  1  0.22550000  0.14705000  0.21630000  1
  H  H1  1  0.89344000  0.05219000  0.78248000  1
  H  H2  1  0.78942000  0.09045000  0.71827000  1
  H  H3  1  0.78676000  0.03004000  0.83488000  1
  H  H4  1  0.55755000  0.24195000  0.76611000  1
  H  H5  1  0.66148000  0.20376000  0.70849000  1
  H  H6  1  0.66417000  0.26410000  0.81468000  1
  H  H7  1  0.78943000  0.09041000  0.52680000  1
  H  H8  1  0.89344000  0.05216000  0.46919000  1
  H  H9  1  0.78682000  0.03001000  0.42062000  1
  H  H10  1  0.55755000  0.24192000  0.45281000  1
  H  H11  1  0.66422000  0.26408000  0.40041000  1
  H  H12  1  0.66157000  0.20366000  0.51703000  1
  H  H13  1  0.95182000  0.15084000  0.95231000  1
  H  H14  1  0.49913000  0.14330000  0.95296000  1
  H  H15  1  0.49916000  0.14328000  0.28297000  1
  H  H16  1  0.95184000  0.15082000  0.28234000  1
  H  H17  1  0.23042000  0.90763000  0.97331000  1
  H  H18  1  0.22334000  0.53577000  0.91906000  1
  H  H19  1  0.22055000  0.38649000  0.26199000  1
  H  H20  1  0.22764000  0.75835000  0.31624000  1
  H  H21  1  0.22575000  0.66101000  0.99919000  1
  H  H22  1  0.22524000  0.63310000  0.23611000  1
  H  H23  1  0.33658000  0.04969000  0.87888000  1
  H  H24  1  0.33661000  0.04969000  0.37328000  1
  H  H25  1  0.11441000  0.24441000  0.35642000  1
  H  H26  1  0.11437000  0.24443000  0.86201000  1
  C  C1  1  0.53741000  0.14392000  0.02696000  1
  C  C2  1  0.53743000  0.14392000  0.20886000  1
  C  C3  1  0.63146000  0.14549000  0.20873000  1
  C  C4  1  0.67847000  0.14627000  0.11771000  1
  C  C5  1  0.63145000  0.14549000  0.02683000  1
  C  C6  1  0.67848000  0.14626000  0.29962000  1
  C  C7  1  0.77252000  0.14783000  0.29949000  1
  C  C8  1  0.81953000  0.14862000  0.20847000  1
  C  C9  1  0.77251000  0.14784000  0.11758000  1
  C  C10  1  0.81952000  0.14863000  0.02656000  1
  C  C11  1  0.77250000  0.14786000  0.93567000  1
  C  C12  1  0.67846000  0.14629000  0.93581000  1
  C  C13  1  0.91356000  0.15019000  0.20833000  1
  C  C14  1  0.91356000  0.15020000  0.02643000  1
  C  C15  1  0.82189000  0.07655000  0.79328000  1
  C  C16  1  0.62910000  0.21760000  0.78111000  1
  C  C17  1  0.82189000  0.07652000  0.45418000  1
  C  C18  1  0.62910000  0.21757000  0.44201000  1
  C  C19  1  0.06065000  0.15265000  0.11717000  1
  C  C20  1  0.96057000  0.15098000  0.11731000  1
  C  C21  1  0.39032000  0.14147000  0.11812000  1
  C  C22  1  0.49040000  0.14314000  0.11798000  1
  C  C23  1  0.22980000  0.87413000  0.05027000  1
  C  C24  1  0.22824000  0.79185000  0.05738000  1
  C  C25  1  0.22747000  0.75071000  0.15189000  1
  C  C26  1  0.22826000  0.79185000  0.23929000  1
  C  C27  1  0.22983000  0.87414000  0.23217000  1
  C  C28  1  0.22275000  0.50227000  0.17792000  1
  C  C29  1  0.22118000  0.41998000  0.18503000  1
  C  C30  1  0.22116000  0.41999000  0.00312000  1
  C  C31  1  0.22272000  0.50227000  0.99601000  1
  C  C32  1  0.22352000  0.54341000  0.08341000  1
  C  C33  1  0.22587000  0.66666667  0.15916000  1
  C  C34  1  0.22512000  0.62751000  0.07614000  1
  C  C35  1  0.23226000  0.00284000  0.13010000  1
  C  C36  1  0.23059000  0.91527000  0.13766000  1
  C  C37  1  0.21872000  0.29127000  0.10519000  1
  C  C38  1  0.22038000  0.37884000  0.09763000  1
  C  C39  1  0.28674000  0.09338000  0.41225000  1
  C  C40  1  0.16426000  0.20072000  0.40295000  1
  C  C41  1  0.16426000  0.20072000  0.50797000  1
  C  C42  1  0.22549000  0.14706000  0.56513000  1
  C  C43  1  0.28673000  0.09339000  0.51728000  1
  C  C44  1  0.10301000  0.25439000  0.55584000  1
  C  C45  1  0.10300000  0.25440000  0.66086000  1
  C  C46  1  0.16424000  0.20073000  0.71802000  1
  C  C47  1  0.22549000  0.14706000  0.67016000  1
  C  C48  1  0.28672000  0.09340000  0.72732000  1
  C  C49  1  0.34797000  0.03973000  0.67946000  1
  C  C50  1  0.34797000  0.03972000  0.57444000  1
  C  C51  1  0.16424000  0.20073000  0.82305000  1
  C  C52  1  0.28671000  0.09340000  0.83235000  1
  N  N1  1  0.22547000  0.14707000  0.88021000  1
  N  N2  1  0.22551000  0.14705000  0.35509000  1
  O  O1  1  0.82015000  0.14787000  0.84466000  1
  O  O2  1  0.63078000  0.14627000  0.84481000  1
  O  O3  1  0.82021000  0.14785000  0.39049000  1
  O  O4  1  0.63083000  0.14624000  0.39063000  1
  O  O5  1  0.09423000  0.15321000  0.02977000  1
  O  O6  1  0.09425000  0.15320000  0.20447000  1
  O  O7  1  0.35675000  0.14092000  0.20552000  1
  O  O8  1  0.35673000  0.14091000  0.03082000  1
  O  O9  1  0.23283000  0.03223000  0.21491000  1
  O  O10  1  0.23281000  0.03224000  0.04021000  1
  O  O11  1  0.21814000  0.26189000  0.02038000  1
  O  O12  1  0.21817000  0.26188000  0.19508000  1
  F  F1  1  0.20482000  0.76426000  0.96905000  1
  F  F2  1  0.23039000  0.91402000  0.31680000  1
  F  F3  1  0.24622000  0.52985000  0.26625000  1
  F  F4  1  0.22059000  0.38010000  0.91850000  1
  F  F5  1  0.04306000  0.30694000  0.50179000  1
  F  F6  1  0.04304000  0.30694000  0.70583000  1
  F  F7  1  0.40792000  0.98717000  0.73351000  1
  F  F8  1  0.40793000  0.98718000  0.52946000  1
