# generated using pymatgen
data_CuH16C17N8O4F
_symmetry_space_group_name_H-M   'P 1'
_cell_length_a   15.99530000
_cell_length_b   19.18890000
_cell_length_c   9.13031000
_cell_angle_alpha   89.99600000
_cell_angle_beta   90.01110000
_cell_angle_gamma   83.31100000
_symmetry_Int_Tables_number   1
_chemical_formula_structural   CuH16C17N8O4F
_chemical_formula_sum   'Cu2 H32 C34 N16 O8 F2'
_cell_volume   2783.31042387
_cell_formula_units_Z   2
loop_
 _symmetry_equiv_pos_site_id
 _symmetry_equiv_pos_as_xyz
  1  'x, y, z'
loop_
 _atom_site_type_symbol
 _atom_site_label
 _atom_site_symmetry_multiplicity
 _atom_site_fract_x
 _atom_site_fract_y
 _atom_site_fract_z
 _atom_site_occupancy
  Cu  Cu1  1  0.22119000  0.21280000  0.90725000  1
  Cu  Cu2  1  0.22121000  0.21280000  0.19534000  1
  H  H1  1  0.66993000  0.08392000  0.31300000  1
  H  H2  1  0.65939000  0.17095000  0.35132000  1
  H  H3  1  0.81269000  0.08934000  0.31915000  1
  H  H4  1  0.79338000  0.17682000  0.35068000  1
  H  H5  1  0.61531000  0.38296000  0.15282000  1
  H  H6  1  0.63578000  0.35782000  0.97704000  1
  H  H7  1  0.75574000  0.38804000  0.12984000  1
  H  H8  1  0.84659000  0.34794000  0.07773000  1
  H  H9  1  0.65726000  0.16561000  0.69077000  1
  H  H10  1  0.67693000  0.10711000  0.82725000  1
  H  H11  1  0.87448000  0.17308000  0.77185000  1
  H  H12  1  0.82030000  0.11023000  0.84053000  1
  H  H13  1  0.78552000  0.26162000  0.82822000  1
  H  H14  1  0.64181000  0.25979000  0.82784000  1
  H  H15  1  0.66933000  0.09526000  0.07333000  1
  H  H16  1  0.81277000  0.09765000  0.07565000  1
  H  H17  1  0.78257000  0.28478000  0.24734000  1
  H  H18  1  0.63953000  0.27821000  0.25144000  1
  H  H19  1  0.22446000  0.06319000  0.78056000  1
  H  H20  1  0.22335000  0.98242000  0.68200000  1
  H  H21  1  0.25429000  0.81080000  0.33096000  1
  H  H22  1  0.21933000  0.89149000  0.41911000  1
  H  H23  1  0.25033000  0.60813000  0.33088000  1
  H  H24  1  0.21298000  0.53522000  0.41905000  1
  H  H25  1  0.21211000  0.36312000  0.78044000  1
  H  H26  1  0.21384000  0.44382000  0.68196000  1
  H  H27  1  0.22632000  0.00086000  0.29224000  1
  H  H28  1  0.22395000  0.86877000  0.81039000  1
  H  H29  1  0.21612000  0.42471000  0.29218000  1
  H  H30  1  0.21843000  0.55686000  0.81036000  1
  H  H31  1  0.11783000  0.29909000  0.41215000  1
  H  H32  1  0.32459000  0.12650000  0.69046000  1
  C  C1  1  0.63743000  0.21156000  0.05131000  1
  C  C2  1  0.67275000  0.21235000  0.89084000  1
  C  C3  1  0.76947000  0.21351000  0.89075000  1
  C  C4  1  0.80498000  0.21403000  0.05128000  1
  C  C5  1  0.78059000  0.14688000  0.13098000  1
  C  C6  1  0.68389000  0.14540000  0.12995000  1
  C  C7  1  0.66248000  0.27809000  0.13323000  1
  C  C8  1  0.75905000  0.28040000  0.13022000  1
  C  C9  1  0.89967000  0.21542000  0.05128000  1
  C  C10  1  0.54274000  0.21017000  0.05132000  1
  C  C11  1  0.06810000  0.21790000  0.05127000  1
  C  C12  1  0.97515000  0.21653000  0.05126000  1
  C  C13  1  0.37430000  0.20769000  0.05132000  1
  C  C14  1  0.46725000  0.20906000  0.05133000  1
  C  C15  1  0.22579000  0.97122000  0.18410000  1
  C  C16  1  0.22450000  0.89840000  0.18410000  1
  C  C17  1  0.22385000  0.86199000  0.05131000  1
  C  C18  1  0.22447000  0.89841000  0.91852000  1
  C  C19  1  0.22576000  0.97124000  0.91852000  1
  C  C20  1  0.21997000  0.64257000  0.05128000  1
  C  C21  1  0.22245000  0.78302000  0.05129000  1
  C  C22  1  0.21793000  0.52719000  0.18407000  1
  C  C23  1  0.21663000  0.45436000  0.18406000  1
  C  C24  1  0.21662000  0.45438000  0.91847000  1
  C  C25  1  0.21791000  0.52720000  0.91848000  1
  C  C26  1  0.21857000  0.56360000  0.05128000  1
  C  C27  1  0.22779000  0.08515000  0.05131000  1
  C  C28  1  0.22642000  0.00764000  0.05133000  1
  C  C29  1  0.21462000  0.34045000  0.05128000  1
  C  C30  1  0.21598000  0.41796000  0.05127000  1
  C  C31  1  0.16421000  0.26036000  0.62792000  1
  C  C32  1  0.16423000  0.26036000  0.47459000  1
  C  C33  1  0.27820000  0.16524000  0.47468000  1
  C  C34  1  0.27819000  0.16524000  0.62801000  1
  N  N1  1  0.64662000  0.13364000  0.27411000  1
  N  N2  1  0.81971000  0.13898000  0.27698000  1
  N  N3  1  0.61291000  0.34217000  0.07759000  1
  N  N4  1  0.78200000  0.34599000  0.06567000  1
  N  N5  1  0.64458000  0.15585000  0.80074000  1
  N  N6  1  0.81404000  0.16009000  0.79386000  1
  N  N7  1  0.26947000  0.74245000  0.95247000  1
  N  N8  1  0.26825000  0.67327000  0.95247000  1
  N  N9  1  0.17297000  0.68366000  0.15011000  1
  N  N10  1  0.17419000  0.75285000  0.15011000  1
  N  N11  1  0.22363000  0.00887000  0.78199000  1
  N  N12  1  0.22891000  0.86314000  0.32164000  1
  N  N13  1  0.22346000  0.56139000  0.32157000  1
  N  N14  1  0.21319000  0.41741000  0.78185000  1
  N  N15  1  0.22119000  0.21280000  0.70463000  1
  N  N16  1  0.22122000  0.21279000  0.39796000  1
  O  O1  1  0.09928000  0.21837000  0.92375000  1
  O  O2  1  0.09930000  0.21836000  0.17881000  1
  O  O3  1  0.34316000  0.20702000  0.17884000  1
  O  O4  1  0.34307000  0.20743000  0.92378000  1
  O  O5  1  0.22825000  0.11115000  0.17884000  1
  O  O6  1  0.22824000  0.11116000  0.92378000  1
  O  O7  1  0.21415000  0.31444000  0.92375000  1
  O  O8  1  0.21416000  0.31444000  0.17881000  1
  F  F1  1  0.10905000  0.30624000  0.70240000  1
  F  F2  1  0.33342000  0.11940000  0.40013000  1
