# generated using pymatgen
data_CuH9C22N3O5F4
_symmetry_space_group_name_H-M   'P 1'
_cell_length_a   14.85350000
_cell_length_b   12.81140000
_cell_length_c   17.66630000
_cell_angle_alpha   84.57030000
_cell_angle_beta   90.00240000
_cell_angle_gamma   83.83600000
_symmetry_Int_Tables_number   1
_chemical_formula_structural   CuH9C22N3O5F4
_chemical_formula_sum   'Cu2 H18 C44 N6 O10 F8'
_cell_volume   3327.18363781
_cell_formula_units_Z   2
loop_
 _symmetry_equiv_pos_site_id
 _symmetry_equiv_pos_as_xyz
  1  'x, y, z'
loop_
 _atom_site_type_symbol
 _atom_site_label
 _atom_site_symmetry_multiplicity
 _atom_site_fract_x
 _atom_site_fract_y
 _atom_site_fract_z
 _atom_site_occupancy
  Cu  Cu1  1  0.17042000  0.17045000  0.07327000  1
  Cu  Cu2  1  0.17043000  0.17045000  0.22216000  1
  H  H1  1  0.89679000  0.17546000  0.02286000  1
  H  H2  1  0.44405000  0.16543000  0.02354000  1
  H  H3  1  0.44406000  0.16543000  0.27256000  1
  H  H4  1  0.89680000  0.17547000  0.27188000  1
  H  H5  1  0.23108000  0.59053000  0.90550000  1
  H  H6  1  0.17111000  0.70719000  0.85724000  1
  H  H7  1  0.10712000  0.60926000  0.90421000  1
  H  H8  1  0.16975000  0.63370000  0.43819000  1
  H  H9  1  0.10978000  0.75036000  0.38993000  1
  H  H10  1  0.23374000  0.73164000  0.39122000  1
  H  H11  1  0.17387000  0.85187000  0.04507000  1
  H  H12  1  0.16699000  0.48904000  0.00133000  1
  H  H13  1  0.16699000  0.48902000  0.25036000  1
  H  H14  1  0.17388000  0.85187000  0.29409000  1
  H  H15  1  0.28091000  0.04089000  0.97008000  1
  H  H16  1  0.05994000  0.30000000  0.80852000  1
  H  H17  1  0.28092000  0.04090000  0.34314000  1
  H  H18  1  0.05994000  0.30001000  0.46911000  1
  C  C1  1  0.48234000  0.16627000  0.07937000  1
  C  C2  1  0.48234000  0.16627000  0.21662000  1
  C  C3  1  0.57638000  0.16836000  0.21648000  1
  C  C4  1  0.62340000  0.16941000  0.14779000  1
  C  C5  1  0.57639000  0.16836000  0.07923000  1
  C  C6  1  0.62341000  0.16940000  0.28504000  1
  C  C7  1  0.71745000  0.17149000  0.28491000  1
  C  C8  1  0.76448000  0.17254000  0.21621000  1
  C  C9  1  0.71745000  0.17149000  0.14764000  1
  C  C10  1  0.76447000  0.17253000  0.07894000  1
  C  C11  1  0.71745000  0.17149000  0.01038000  1
  C  C12  1  0.62341000  0.16941000  0.01052000  1
  C  C13  1  0.85852000  0.17463000  0.21606000  1
  C  C14  1  0.85852000  0.17462000  0.07880000  1
  C  C15  1  0.00563000  0.17788000  0.14721000  1
  C  C16  1  0.90554000  0.17567000  0.14736000  1
  C  C17  1  0.33523000  0.16302000  0.14822000  1
  C  C18  1  0.43532000  0.16523000  0.14807000  1
  C  C19  1  0.16991000  0.64308000  0.04665000  1
  C  C20  1  0.16783000  0.53360000  0.05416000  1
  C  C21  1  0.16783000  0.53360000  0.19142000  1
  C  C22  1  0.16991000  0.64308000  0.18391000  1
  C  C23  1  0.17095000  0.69782000  0.11152000  1
  C  C24  1  0.17303000  0.80730000  0.10401000  1
  C  C25  1  0.17304000  0.80730000  0.24127000  1
  C  C26  1  0.17095000  0.69781000  0.24878000  1
  C  C27  1  0.16999000  0.64846000  0.90746000  1
  C  C28  1  0.17087000  0.69243000  0.38796000  1
  C  C29  1  0.17629000  0.97856000  0.16089000  1
  C  C30  1  0.17407000  0.86204000  0.16888000  1
  C  C31  1  0.16456000  0.36234000  0.13454000  1
  C  C32  1  0.16678000  0.47886000  0.12654000  1
  C  C33  1  0.23132000  0.09905000  0.93384000  1
  C  C34  1  0.23132000  0.09904000  0.85459000  1
  C  C35  1  0.17043000  0.17045000  0.81006000  1
  C  C36  1  0.10951000  0.24185000  0.84478000  1
  C  C37  1  0.10951000  0.24185000  0.92403000  1
  C  C38  1  0.17043000  0.17046000  0.57129000  1
  C  C39  1  0.17042000  0.17046000  0.72413000  1
  C  C40  1  0.23134000  0.09905000  0.45065000  1
  C  C41  1  0.23133000  0.09905000  0.37140000  1
  C  C42  1  0.10953000  0.24187000  0.36160000  1
  C  C43  1  0.10953000  0.24187000  0.44085000  1
  C  C44  1  0.17044000  0.17046000  0.48537000  1
  N  N1  1  0.15949000  0.26331000  0.67926000  1
  N  N2  1  0.15950000  0.26331000  0.60398000  1
  N  N3  1  0.18138000  0.07761000  0.61673000  1
  N  N4  1  0.18137000  0.07761000  0.69202000  1
  N  N5  1  0.17042000  0.17044000  0.96855000  1
  N  N6  1  0.17043000  0.17046000  0.32688000  1
  O  O1  1  0.03921000  0.17862000  0.08125000  1
  O  O2  1  0.03922000  0.17863000  0.21307000  1
  O  O3  1  0.30164000  0.16229000  0.21418000  1
  O  O4  1  0.30164000  0.16226000  0.08236000  1
  O  O5  1  0.17102000  0.70203000  0.97471000  1
  O  O6  1  0.16984000  0.63886000  0.32072000  1
  O  O7  1  0.17704000  0.01767000  0.22411000  1
  O  O8  1  0.17703000  0.01766000  0.09229000  1
  O  O9  1  0.16382000  0.32323000  0.07132000  1
  O  O10  1  0.16382000  0.32324000  0.20314000  1
  F  F1  1  0.57909000  0.16844000  0.35231000  1
  F  F2  1  0.76180000  0.17248000  0.35203000  1
  F  F3  1  0.76177000  0.17246000  0.94312000  1
  F  F4  1  0.57906000  0.16842000  0.94340000  1
  F  F5  1  0.29163000  0.03015000  0.82194000  1
  F  F6  1  0.05034000  0.31093000  0.95767000  1
  F  F7  1  0.29163000  0.03018000  0.49278000  1
  F  F8  1  0.05039000  0.31095000  0.31849000  1
