data_DB6-cuf_5881_repeat
_audit_creation_date              2024-02-23
_audit_creation_method            'Materials Studio'
_symmetry_space_group_name_H-M    'P1'
_symmetry_Int_Tables_number       1
_symmetry_cell_setting            triclinic
loop_
_symmetry_equiv_pos_as_xyz
  x,y,z
_cell_length_a                    14.8535
_cell_length_b                    9.0652
_cell_length_c                    14.5863
_cell_angle_alpha                 89.9994
_cell_angle_beta                  90.0091
_cell_angle_gamma                 84.3180
loop_
_atom_site_label
_atom_site_type_symbol
_atom_site_fract_x
_atom_site_fract_y
_atom_site_fract_z
_atom_site_U_iso_or_equiv
_atom_site_adp_type
_atom_site_occupancy
Cu1    Cu    0.27146   0.05648   0.06694   0.00000  Uiso   1.00
Cu2    Cu    0.27149   0.05647   0.24726   0.00000  Uiso   1.00
C1     C     0.58334   0.05061   0.07397   0.00000  Uiso   1.00
C2     C     0.58337   0.05060   0.24021   0.00000  Uiso   1.00
C3     C     0.67742   0.05354   0.24022   0.00000  Uiso   1.00
C4     C     0.72444   0.05501   0.15710   0.00000  Uiso   1.00
C5     C     0.67741   0.05354   0.07398   0.00000  Uiso   1.00
C6     C     0.72447   0.05499   0.32334   0.00000  Uiso   1.00
C7     C     0.81853   0.05793   0.32335   0.00000  Uiso   1.00
C8     C     0.86555   0.05941   0.24023   0.00000  Uiso   1.00
C9     C     0.81851   0.05794   0.15710   0.00000  Uiso   1.00
C10    C     0.86553   0.05941   0.07398   0.00000  Uiso   1.00
C11    C     0.81848   0.05796   0.99085   0.00000  Uiso   1.00
C12    C     0.72443   0.05502   0.99086   0.00000  Uiso   1.00
C13    C     0.95961   0.06234   0.24023   0.00000  Uiso   1.00
C14    C     0.95959   0.06235   0.07398   0.00000  Uiso   1.00
N1     N     0.86529   0.06594   0.90487   0.00000  Uiso   1.00
H1     H     0.84827   0.00743   0.84687   0.00000  Uiso   1.00
H2     H     0.91471   0.13902   0.89671   0.00000  Uiso   1.00
N2     N     0.67663   0.06008   0.90487   0.00000  Uiso   1.00
H3     H     0.70211   0.00333   0.84674   0.00000  Uiso   1.00
H4     H     0.61688   0.12976   0.89679   0.00000  Uiso   1.00
N3     N     0.86557   0.05682   0.40938   0.00000  Uiso   1.00
H5     H     0.92699   0.99297   0.42042   0.00000  Uiso   1.00
H6     H     0.83593   0.11333   0.46588   0.00000  Uiso   1.00
N4     N     0.67789   0.04943   0.40939   0.00000  Uiso   1.00
H7     H     0.70761   0.99303   0.46588   0.00000  Uiso   1.00
H8     H     0.61647   0.11329   0.42036   0.00000  Uiso   1.00
H9     H     0.99786   0.06353   0.00629   0.00000  Uiso   1.00
H10    H     0.54504   0.04943   0.00629   0.00000  Uiso   1.00
H11    H     0.54509   0.04941   0.30789   0.00000  Uiso   1.00
H12    H     0.99790   0.06352   0.30791   0.00000  Uiso   1.00
C15    C     0.10673   0.06692   0.15710   0.00000  Uiso   1.00
C16    C     0.00663   0.06381   0.15711   0.00000  Uiso   1.00
O1     O     0.14031   0.06797   0.07728   0.00000  Uiso   1.00
O2     O     0.14034   0.06797   0.23693   0.00000  Uiso   1.00
C17    C     0.43622   0.04603   0.15710   0.00000  Uiso   1.00
C18    C     0.53632   0.04914   0.15709   0.00000  Uiso   1.00
O3     O     0.40264   0.04500   0.23693   0.00000  Uiso   1.00
O4     O     0.40261   0.04497   0.07727   0.00000  Uiso   1.00
C19    C     0.27586   0.78676   0.15710   0.00000  Uiso   1.00
C20    C     0.27275   0.62298   0.15710   0.00000  Uiso   1.00
O5     O     0.27692   0.84171   0.23693   0.00000  Uiso   1.00
O6     O     0.27689   0.84172   0.07727   0.00000  Uiso   1.00
C21    C     0.26709   0.32619   0.15710   0.00000  Uiso   1.00
C22    C     0.27022   0.48997   0.15710   0.00000  Uiso   1.00
O7     O     0.26605   0.27123   0.23693   0.00000  Uiso   1.00
O8     O     0.26603   0.27124   0.07727   0.00000  Uiso   1.00
C23    C     0.21112   0.15685   0.70508   0.00000  Uiso   1.00
C24    C     0.21113   0.15685   0.60909   0.00000  Uiso   1.00
C25    C     0.33183   0.95610   0.60913   0.00000  Uiso   1.00
C26    C     0.33183   0.95611   0.70511   0.00000  Uiso   1.00
C27    C     0.27146   0.05648   0.75308   0.00000  Uiso   1.00
C28    C     0.27149   0.05647   0.56112   0.00000  Uiso   1.00
C29    C     0.27150   0.05647   0.45705   0.00000  Uiso   1.00
C30    C     0.27145   0.05648   0.85715   0.00000  Uiso   1.00
O9     O     0.39099   0.85771   0.55655   0.00000  Uiso   1.00
C31    C     0.45366   0.75348   0.60277   0.00000  Uiso   1.00
H13    H     0.41721   0.67691   0.64527   0.00000  Uiso   1.00
H14    H     0.50106   0.81183   0.64528   0.00000  Uiso   1.00
H15    H     0.49398   0.68642   0.55081   0.00000  Uiso   1.00
O10    O     0.15196   0.25524   0.75766   0.00000  Uiso   1.00
C32    C     0.08929   0.35947   0.71144   0.00000  Uiso   1.00
H16    H     0.04189   0.30112   0.66892   0.00000  Uiso   1.00
H17    H     0.12574   0.43604   0.66894   0.00000  Uiso   1.00
H18    H     0.04897   0.42653   0.76340   0.00000  Uiso   1.00
H19    H     0.16200   0.23859   0.57002   0.00000  Uiso   1.00
H20    H     0.38097   0.87436   0.74419   0.00000  Uiso   1.00
N5     N     0.27144   0.05648   0.94011   0.00000  Uiso   1.00
N6     N     0.27151   0.05647   0.37410   0.00000  Uiso   1.00
