# generated using pymatgen
data_CuH4C18N(O2F3)2
_symmetry_space_group_name_H-M   'P 1'
_cell_length_a   14.97150000
_cell_length_b   12.81140000
_cell_length_c   14.42150000
_cell_angle_alpha   84.57430000
_cell_angle_beta   90.00440000
_cell_angle_gamma   83.82990000
_symmetry_Int_Tables_number   1
_chemical_formula_structural   CuH4C18N(O2F3)2
_chemical_formula_sum   'Cu2 H8 C36 N2 O8 F12'
_cell_volume   2737.63682237
_cell_formula_units_Z   2
loop_
 _symmetry_equiv_pos_site_id
 _symmetry_equiv_pos_as_xyz
  1  'x, y, z'
loop_
 _atom_site_type_symbol
 _atom_site_label
 _atom_site_symmetry_multiplicity
 _atom_site_fract_x
 _atom_site_fract_y
 _atom_site_fract_z
 _atom_site_occupancy
  Cu  Cu1  1  0.19117000  0.16176000  0.04108000  1
  Cu  Cu2  1  0.19119000  0.16178000  0.22347000  1
  H  H1  1  0.75045000  0.16311000  0.28469000  1
  H  H2  1  0.63193000  0.16046000  0.28491000  1
  H  H3  1  0.46265000  0.15670000  0.98016000  1
  H  H4  1  0.91969000  0.16682000  0.97933000  1
  H  H5  1  0.19459000  0.84318000  0.00653000  1
  H  H6  1  0.18775000  0.48035000  0.95296000  1
  H  H7  1  0.18777000  0.48035000  0.25801000  1
  H  H8  1  0.19461000  0.84320000  0.31158000  1
  C  C1  1  0.88172000  0.16600000  0.21600000  1
  C  C2  1  0.78842000  0.16394000  0.21617000  1
  C  C3  1  0.74176000  0.16289000  0.13218000  1
  C  C4  1  0.78841000  0.16392000  0.04802000  1
  C  C5  1  0.88172000  0.16599000  0.04785000  1
  C  C6  1  0.59394000  0.15961000  0.04838000  1
  C  C7  1  0.50063000  0.15754000  0.04855000  1
  C  C8  1  0.50064000  0.15756000  0.21669000  1
  C  C9  1  0.59394000  0.15962000  0.21652000  1
  C  C10  1  0.64059000  0.16065000  0.13236000  1
  C  C11  1  0.02767000  0.16922000  0.13165000  1
  C  C12  1  0.92837000  0.16702000  0.13184000  1
  C  C13  1  0.35468000  0.15432000  0.13289000  1
  C  C14  1  0.45398000  0.15652000  0.13270000  1
  C  C15  1  0.19066000  0.63439000  0.00847000  1
  C  C16  1  0.18859000  0.52491000  0.01767000  1
  C  C17  1  0.18860000  0.52492000  0.18581000  1
  C  C18  1  0.19067000  0.63440000  0.17661000  1
  C  C19  1  0.19169000  0.68913000  0.08794000  1
  C  C20  1  0.19375000  0.79862000  0.07873000  1
  C  C21  1  0.19377000  0.79862000  0.24688000  1
  C  C22  1  0.19170000  0.68914000  0.25608000  1
  C  C23  1  0.19699000  0.96988000  0.14841000  1
  C  C24  1  0.19479000  0.85336000  0.15821000  1
  C  C25  1  0.18536000  0.35366000  0.11614000  1
  C  C26  1  0.18756000  0.47017000  0.10634000  1
  C  C27  1  0.25429000  0.08717000  0.66945000  1
  C  C28  1  0.17334000  0.06694000  0.60931000  1
  C  C29  1  0.19117000  0.16176000  0.72364000  1
  C  C30  1  0.27213000  0.18196000  0.59968000  1
  C  C31  1  0.19118000  0.16177000  0.54092000  1
  C  C32  1  0.11017000  0.14148000  0.66487000  1
  C  C33  1  0.20902000  0.25655000  0.65524000  1
  C  C34  1  0.12801000  0.23636000  0.59513000  1
  C  C35  1  0.19116000  0.16175000  0.82890000  1
  C  C36  1  0.19118000  0.16178000  0.43566000  1
  N  N1  1  0.19116000  0.16175000  0.91280000  1
  N  N2  1  0.19119000  0.16179000  0.35175000  1
  O  O1  1  0.06099000  0.16995000  0.05085000  1
  O  O2  1  0.06100000  0.16997000  0.21233000  1
  O  O3  1  0.32137000  0.15358000  0.21370000  1
  O  O4  1  0.32135000  0.15357000  0.05222000  1
  O  O5  1  0.19774000  0.00899000  0.22586000  1
  O  O6  1  0.19772000  0.00897000  0.06438000  1
  O  O7  1  0.18462000  0.31455000  0.03869000  1
  O  O8  1  0.18462000  0.31456000  0.20017000  1
  F  F1  1  0.92706000  0.16757000  0.29722000  1
  F  F2  1  0.75122000  0.20696000  0.96573000  1
  F  F3  1  0.63117000  0.11656000  0.97334000  1
  F  F4  1  0.45533000  0.15601000  0.29815000  1
  F  F5  1  0.19161000  0.68575000  0.92175000  1
  F  F6  1  0.19075000  0.63778000  0.34280000  1
  F  F7  1  0.15507000  0.96975000  0.58449000  1
  F  F8  1  0.35513000  0.20272000  0.56507000  1
  F  F9  1  0.06334000  0.31284000  0.55576000  1
  F  F10  1  0.31898000  0.01068000  0.70879000  1
  F  F11  1  0.22735000  0.35376000  0.68000000  1
  F  F12  1  0.02719000  0.12069000  0.69957000  1
