# generated using pymatgen
data_Zn2H10C15O7
_symmetry_space_group_name_H-M   'P 1'
_cell_length_a   30.53679000
_cell_length_b   30.66339000
_cell_length_c   15.96666000
_cell_angle_alpha   88.23301000
_cell_angle_beta   93.52071000
_cell_angle_gamma   93.58301000
_symmetry_Int_Tables_number   1
_chemical_formula_structural   Zn2H10C15O7
_chemical_formula_sum   'Zn32 H160 C240 O112'
_cell_volume   14887.71003744
_cell_formula_units_Z   16
loop_
 _symmetry_equiv_pos_site_id
 _symmetry_equiv_pos_as_xyz
  1  'x, y, z'
loop_
 _atom_site_type_symbol
 _atom_site_label
 _atom_site_symmetry_multiplicity
 _atom_site_fract_x
 _atom_site_fract_y
 _atom_site_fract_z
 _atom_site_occupancy
  Zn  Zn1  1  0.71352000  0.96023000  0.35697000  1
  Zn  Zn2  1  0.76597000  0.89789000  0.51679000  1
  Zn  Zn3  1  0.76226000  0.87561000  0.32854000  1
  Zn  Zn4  1  0.72478000  0.94430000  0.17125000  1
  Zn  Zn5  1  0.81236000  0.54026000  0.89283000  1
  Zn  Zn6  1  0.76763000  0.60371000  0.03673000  1
  Zn  Zn7  1  0.76695000  0.62716000  0.84872000  1
  Zn  Zn8  1  0.79190000  0.55834000  0.70566000  1
  Zn  Zn9  1  0.14129000  0.77930000  0.61388000  1
  Zn  Zn10  1  0.10258000  0.76122000  0.80300000  1
  Zn  Zn11  1  0.04886000  0.73906000  0.63800000  1
  Zn  Zn12  1  0.08496000  0.77501000  0.45097000  1
  Zn  Zn13  1  0.39018000  0.75318000  0.11107000  1
  Zn  Zn14  1  0.45110000  0.72124000  0.96391000  1
  Zn  Zn15  1  0.47782000  0.70989000  0.15369000  1
  Zn  Zn16  1  0.42180000  0.76674000  0.29415000  1
  Zn  Zn17  1  0.30312000  0.04234000  0.37631000  1
  Zn  Zn18  1  0.25488000  0.09458000  0.53078000  1
  Zn  Zn19  1  0.25617000  0.12830000  0.35134000  1
  Zn  Zn20  1  0.27721000  0.06696000  0.19215000  1
  Zn  Zn21  1  0.25646000  0.46535000  0.87928000  1
  Zn  Zn22  1  0.20282000  0.42692000  0.70145000  1
  Zn  Zn23  1  0.20985000  0.37354000  0.86302000  1
  Zn  Zn24  1  0.24621000  0.41482000  0.04723000  1
  Zn  Zn25  1  0.87291000  0.24456000  0.58552000  1
  Zn  Zn26  1  0.93413000  0.21581000  0.43201000  1
  Zn  Zn27  1  0.95490000  0.19125000  0.61828000  1
  Zn  Zn28  1  0.90243000  0.24038000  0.77241000  1
  Zn  Zn29  1  0.62893000  0.29874000  0.07980000  1
  Zn  Zn30  1  0.59212000  0.26462000  0.26202000  1
  Zn  Zn31  1  0.53644000  0.25478000  0.09456000  1
  Zn  Zn32  1  0.57240000  0.30856000  0.91983000  1
  H  H1  1  0.70140000  0.87987000  0.41913000  1
  H  H2  1  0.78551000  0.96162000  0.28765000  1
  H  H3  1  0.83254000  0.62129000  0.94764000  1
  H  H4  1  0.73695000  0.54261000  0.81883000  1
  H  H5  1  0.07370000  0.81270000  0.68739000  1
  H  H6  1  0.11014000  0.71374000  0.54539000  1
  H  H7  1  0.47314000  0.78046000  0.07036000  1
  H  H8  1  0.40054000  0.69598000  0.22146000  1
  H  H9  1  0.32129000  0.11940000  0.44849000  1
  H  H10  1  0.22687000  0.04526000  0.30997000  1
  H  H11  1  0.27030000  0.40145000  0.78116000  1
  H  H12  1  0.18620000  0.44369000  0.94678000  1
  H  H13  1  0.95812000  0.26645000  0.55350000  1
  H  H14  1  0.87550000  0.17859000  0.67819000  1
  H  H15  1  0.56117000  0.32351000  0.16586000  1
  H  H16  1  0.59755000  0.23956000  0.99240000  1
  H  H17  1  0.72989000  0.31167000  0.66352000  1
  H  H18  1  0.73074000  0.35625000  0.81745000  1
  H  H19  1  0.66815000  0.24747000  0.72731000  1
  H  H20  1  0.73910000  0.19795000  0.79125000  1
  H  H21  1  0.74029000  0.24254000  0.94486000  1
  H  H22  1  0.80054000  0.30696000  0.88335000  1
  H  H23  1  0.78017000  0.18430000  0.30006000  1
  H  H24  1  0.77197000  0.24678000  0.16524000  1
  H  H25  1  0.70468000  0.21522000  0.36777000  1
  H  H26  1  0.75895000  0.27627000  0.46268000  1
  H  H27  1  0.75123000  0.33857000  0.32870000  1
  H  H28  1  0.82706000  0.30764000  0.26093000  1
  H  H29  1  0.46360000  0.40581000  0.04749000  1
  H  H30  1  0.37893000  0.37849000  0.09524000  1
  H  H31  1  0.42747000  0.43537000  0.88898000  1
  H  H32  1  0.43689000  0.35131000  0.82385000  1
  H  H33  1  0.35184000  0.32410000  0.87171000  1
  H  H34  1  0.38762000  0.29491000  0.03021000  1
  H  H35  1  0.04219000  0.28194000  0.62670000  1
  H  H36  1  0.12662000  0.27993000  0.71039000  1
  H  H37  1  0.03110000  0.36409000  0.69872000  1
  H  H38  1  0.99350000  0.32018000  0.83817000  1
  H  H39  1  0.07733000  0.31750000  0.92158000  1
  H  H40  1  0.08874000  0.23585000  0.84956000  1
  H  H41  1  0.38037000  0.18122000  0.36511000  1
  H  H42  1  0.40813000  0.21976000  0.21303000  1
  H  H43  1  0.46962000  0.17575000  0.42473000  1
  H  H44  1  0.46886000  0.09082000  0.35547000  1
  H  H45  1  0.49768000  0.13018000  0.20332000  1
  H  H46  1  0.40930000  0.13652000  0.14348000  1
  H  H47  1  0.10789000  0.07181000  0.54735000  1
  H  H48  1  0.03103000  0.07205000  0.43647000  1
  H  H49  1  0.09691000  0.16025000  0.58420000  1
  H  H50  1  0.14859000  0.18837000  0.45029000  1
  H  H51  1  0.07307000  0.18804000  0.33981000  1
  H  H52  1  0.08449000  0.09951000  0.30269000  1
  H  H53  1  0.30252000  0.29463000  0.13241000  1
  H  H54  1  0.31290000  0.21447000  0.05376000  1
  H  H55  1  0.24723000  0.24992000  0.24752000  1
  H  H56  1  0.17317000  0.26538000  0.13743000  1
  H  H57  1  0.18348000  0.18508000  0.05853000  1
  H  H58  1  0.23862000  0.23032000  0.94310000  1
  H  H59  1  0.17391000  0.20537000  0.61440000  1
  H  H60  1  0.15647000  0.28926000  0.54799000  1
  H  H61  1  0.23587000  0.24309000  0.73391000  1
  H  H62  1  0.30319000  0.23748000  0.62034000  1
  H  H63  1  0.28559000  0.32201000  0.55451000  1
  H  H64  1  0.22386000  0.28310000  0.43345000  1
  H  H65  1  0.31883000  0.85428000  0.15321000  1
  H  H66  1  0.32594000  0.93680000  0.07054000  1
  H  H67  1  0.32163000  0.89507000  0.30998000  1
  H  H68  1  0.41456000  0.89283000  0.32257000  1
  H  H69  1  0.42120000  0.97630000  0.23961000  1
  H  H70  1  0.41921000  0.93431000  0.08297000  1
  H  H71  1  0.42330000  0.53951000  0.16312000  1
  H  H72  1  0.38949000  0.50309000  0.00861000  1
  H  H73  1  0.33542000  0.54427000  0.21194000  1
  H  H74  1  0.33361000  0.62965000  0.13865000  1
  H  H75  1  0.30114000  0.59456000  0.98455000  1
  H  H76  1  0.38709000  0.58767000  0.93530000  1
  H  H77  1  0.22809000  0.94723000  0.65628000  1
  H  H78  1  0.23499000  0.86640000  0.57875000  1
  H  H79  1  0.13958000  0.94929000  0.59115000  1
  H  H80  1  0.16796000  0.99373000  0.44439000  1
  H  H81  1  0.17511000  0.91282000  0.36788000  1
  H  H82  1  0.26413000  0.91168000  0.43284000  1
  H  H83  1  0.22149000  0.69895000  0.88774000  1
  H  H84  1  0.26854000  0.75491000  0.00436000  1
  H  H85  1  0.30116000  0.68470000  0.81293000  1
  H  H86  1  0.28681000  0.75719000  0.70120000  1
  H  H87  1  0.33441000  0.81299000  0.81817000  1
  H  H88  1  0.25462000  0.82717000  0.89325000  1
  H  H89  1  0.31597000  0.75688000  0.43162000  1
  H  H90  1  0.24180000  0.69720000  0.41164000  1
  H  H91  1  0.25992000  0.82633000  0.43800000  1
  H  H92  1  0.26075000  0.83841000  0.26104000  1
  H  H93  1  0.18651000  0.77866000  0.24145000  1
  H  H94  1  0.24351000  0.70906000  0.23411000  1
  H  H95  1  0.07395000  0.57061000  0.67545000  1
  H  H96  1  0.10924000  0.54006000  0.83399000  1
  H  H97  1  0.15528000  0.55730000  0.60500000  1
  H  H98  1  0.18553000  0.64349000  0.64446000  1
  H  H99  1  0.22050000  0.61329000  0.80295000  1
  H  H100  1  0.13958000  0.62596000  0.87335000  1
  H  H101  1  0.57642000  0.68285000  0.84847000  1
  H  H102  1  0.58822000  0.59152000  0.85465000  1
  H  H103  1  0.66265000  0.69854000  0.92007000  1
  H  H104  1  0.63018000  0.69264000  0.08237000  1
  H  H105  1  0.64196000  0.60125000  0.08879000  1
  H  H106  1  0.55497000  0.58592000  0.01736000  1
  H  H107  1  0.93454000  0.62613000  0.67566000  1
  H  H108  1  0.01608000  0.62409000  0.76993000  1
  H  H109  1  0.92445000  0.71201000  0.72493000  1
  H  H110  1  0.88190000  0.68049000  0.86734000  1
  H  H111  1  0.96418000  0.67974000  0.96126000  1
  H  H112  1  0.97201000  0.59193000  0.91181000  1
  H  H113  1  0.92325000  0.41970000  0.60778000  1
  H  H114  1  0.92840000  0.45281000  0.77270000  1
  H  H115  1  0.83222000  0.43488000  0.59306000  1
  H  H116  1  0.81231000  0.35017000  0.65779000  1
  H  H117  1  0.81790000  0.38271000  0.82286000  1
  H  H118  1  0.90903000  0.36669000  0.83742000  1
  H  H119  1  0.75722000  0.42035000  0.11912000  1
  H  H120  1  0.72261000  0.38156000  0.96853000  1
  H  H121  1  0.67090000  0.43449000  0.16339000  1
  H  H122  1  0.67558000  0.51697000  0.08073000  1
  H  H123  1  0.64052000  0.47804000  0.92943000  1
  H  H124  1  0.72746000  0.46427000  0.88536000  1
  H  H125  1  0.57322000  0.79912000  0.14897000  1
  H  H126  1  0.65140000  0.80723000  0.25305000  1
  H  H127  1  0.55746000  0.88769000  0.17763000  1
  H  H128  1  0.51005000  0.86073000  0.31869000  1
  H  H129  1  0.58858000  0.86916000  0.42269000  1
  H  H130  1  0.60400000  0.78023000  0.39393000  1
  H  H131  1  0.94334000  0.89664000  0.37263000  1
  H  H132  1  0.94910000  0.80663000  0.34254000  1
  H  H133  1  0.97771000  0.88321000  0.53951000  1
  H  H134  1  0.89144000  0.86585000  0.59257000  1
  H  H135  1  0.89800000  0.77547000  0.56274000  1
  H  H136  1  0.86301000  0.78920000  0.39580000  1
  H  H137  1  0.71483000  0.71784000  0.13783000  1
  H  H138  1  0.67625000  0.79300000  0.06969000  1
  H  H139  1  0.78851000  0.76922000  0.20048000  1
  H  H140  1  0.83034000  0.76005000  0.04897000  1
  H  H141  1  0.79153000  0.83659000  0.98196000  1
  H  H142  1  0.71799000  0.78339000  0.91731000  1
  H  H143  1  0.74964000  0.74005000  0.70337000  1
  H  H144  1  0.69726000  0.75155000  0.55266000  1
  H  H145  1  0.82333000  0.77927000  0.62742000  1
  H  H146  1  0.84555000  0.69760000  0.57320000  1
  H  H147  1  0.79326000  0.70993000  0.42106000  1
  H  H148  1  0.71959000  0.66857000  0.49994000  1
  H  H149  1  0.79115000  0.06670000  0.37874000  1
  H  H150  1  0.88252000  0.05451000  0.40673000  1
  H  H151  1  0.79817000  0.13196000  0.50140000  1
  H  H152  1  0.77910000  0.06752000  0.62669000  1
  H  H153  1  0.87077000  0.05562000  0.65479000  1
  H  H154  1  0.86373000  0.99024000  0.53222000  1
  H  H155  1  0.70119000  0.11818000  0.25011000  1
  H  H156  1  0.61856000  0.13273000  0.30977000  1
  H  H157  1  0.67362000  0.15021000  0.08913000  1
  H  H158  1  0.64193000  0.06516000  0.04342000  1
  H  H159  1  0.55847000  0.08090000  0.10291000  1
  H  H160  1  0.58676000  0.04803000  0.26437000  1
  C  C1  1  0.74784000  0.85181000  0.15307000  1
  C  C2  1  0.84723000  0.88546000  0.41540000  1
  C  C3  1  0.67839000  0.02339000  0.21542000  1
  C  C4  1  0.76552000  0.99250000  0.50251000  1
  C  C5  1  0.64569000  0.90290000  0.27265000  1
  C  C6  1  0.77185000  0.80579000  0.47746000  1
  C  C7  1  0.77386000  0.65108000  0.67131000  1
  C  C8  1  0.68465000  0.60540000  0.91834000  1
  C  C9  1  0.83203000  0.47689000  0.75951000  1
  C  C10  1  0.77125000  0.50991000  0.03919000  1
  C  C11  1  0.87929000  0.58983000  0.80659000  1
  C  C12  1  0.75662000  0.69507000  0.98498000  1
  C  C13  1  0.99673000  0.78983000  0.51012000  1
  C  C14  1  0.10411000  0.67097000  0.71996000  1
  C  C15  1  0.17834000  0.76757000  0.43300000  1
  C  C16  1  0.19708000  0.77234000  0.76930000  1
  C  C17  1  0.14096000  0.85936000  0.52535000  1
  C  C18  1  0.01284000  0.72131000  0.80378000  1
  C  C19  1  0.51613000  0.76435000  0.28915000  1
  C  C20  1  0.42367000  0.63810000  0.07527000  1
  C  C21  1  0.32884000  0.77008000  0.25128000  1
  C  C22  1  0.35663000  0.73847000  0.94349000  1
  C  C23  1  0.41324000  0.84046000  0.15962000  1
  C  C24  1  0.53455000  0.68220000  0.01462000  1
  C  C25  1  0.26019000  0.16157000  0.18232000  1
  C  C26  1  0.17209000  0.10095000  0.40803000  1
  C  C27  1  0.32158000  0.98553000  0.23325000  1
  C  C28  1  0.26311000  0.00164000  0.51528000  1
  C  C29  1  0.36796000  0.09443000  0.28606000  1
  C  C30  1  0.24177000  0.18727000  0.49867000  1
  C  C31  1  0.22733000  0.32051000  0.01603000  1
  C  C32  1  0.12453000  0.36938000  0.78765000  1
  C  C33  1  0.29237000  0.50270000  0.04352000  1
  C  C34  1  0.19460000  0.51498000  0.76584000  1
  C  C35  1  0.32809000  0.40849000  0.94395000  1
  C  C36  1  0.21638000  0.33527000  0.68048000  1
  C  C37  1  0.99516000  0.23045000  0.76791000  1
  C  C38  1  0.89546000  0.13042000  0.52285000  1
  C  C39  1  0.81202000  0.26100000  0.72817000  1
  C  C40  1  0.84200000  0.24246000  0.41134000  1
  C  C41  1  0.90392000  0.32432000  0.66136000  1
  C  C42  1  0.01254000  0.16705000  0.48124000  1
  C  C43  1  0.48495000  0.31746000  0.98511000  1
  C  C44  1  0.59157000  0.18139000  0.15581000  1
  C  C45  1  0.66328000  0.29422000  0.89637000  1
  C  C46  1  0.68561000  0.27978000  0.22988000  1
  C  C47  1  0.62974000  0.38510000  0.01853000  1
  C  C48  1  0.50285000  0.22331000  0.25964000  1
  C  C49  1  0.73194000  0.29620000  0.72731000  1
  C  C50  1  0.73273000  0.32047000  0.81124000  1
  C  C51  1  0.69851000  0.26079000  0.76176000  1
  C  C52  1  0.70022000  0.28502000  0.84502000  1
  C  C53  1  0.76963000  0.26916000  0.76385000  1
  C  C54  1  0.73701000  0.23371000  0.79752000  1
  C  C55  1  0.73796000  0.25803000  0.88107000  1
  C  C56  1  0.77078000  0.29344000  0.84723000  1
  C  C57  1  0.77345000  0.21920000  0.30610000  1
  C  C58  1  0.76939000  0.25335000  0.23269000  1
  C  C59  1  0.73248000  0.23611000  0.34384000  1
  C  C60  1  0.72894000  0.27012000  0.27138000  1
  C  C61  1  0.80246000  0.25283000  0.35719000  1
  C  C62  1  0.76185000  0.26961000  0.39532000  1
  C  C63  1  0.75800000  0.30370000  0.32241000  1
  C  C64  1  0.79917000  0.28686000  0.28469000  1
  C  C65  1  0.43838000  0.38741000  0.00718000  1
  C  C66  1  0.39186000  0.37223000  0.03350000  1
  C  C67  1  0.41845000  0.40367000  0.92081000  1
  C  C68  1  0.37226000  0.38829000  0.94712000  1
  C  C69  1  0.44303000  0.34169000  0.97183000  1
  C  C70  1  0.42378000  0.35772000  0.88534000  1
  C  C71  1  0.37710000  0.34258000  0.91182000  1
  C  C72  1  0.39687000  0.32651000  0.99816000  1
  C  C73  1  0.05025000  0.29031000  0.69326000  1
  C  C74  1  0.09640000  0.28891000  0.73929000  1
  C  C75  1  0.04408000  0.33502000  0.73261000  1
  C  C76  1  0.08964000  0.33309000  0.77856000  1
  C  C77  1  0.03024000  0.26677000  0.76974000  1
  C  C78  1  0.02357000  0.31104000  0.80890000  1
  C  C79  1  0.06948000  0.30943000  0.85480000  1
  C  C80  1  0.07580000  0.26491000  0.81555000  1
  C  C81  1  0.40712000  0.16991000  0.32859000  1
  C  C82  1  0.42219000  0.19074000  0.24532000  1
  C  C83  1  0.45567000  0.16646000  0.36147000  1
  C  C84  1  0.47023000  0.18700000  0.27783000  1
  C  C85  1  0.40770000  0.12457000  0.29038000  1
  C  C86  1  0.45562000  0.12026000  0.32344000  1
  C  C87  1  0.47104000  0.14158000  0.23997000  1
  C  C88  1  0.42283000  0.14533000  0.20731000  1
  C  C89  1  0.09977000  0.09809000  0.50062000  1
  C  C90  1  0.05805000  0.09803000  0.43972000  1
  C  C91  1  0.09390000  0.14637000  0.52053000  1
  C  C92  1  0.05288000  0.14618000  0.45933000  1
  C  C93  1  0.12779000  0.11372000  0.42767000  1
  C  C94  1  0.12221000  0.16181000  0.44744000  1
  C  C95  1  0.08098000  0.16170000  0.38653000  1
  C  C96  1  0.08691000  0.11341000  0.36631000  1
  C  C97  1  0.27569000  0.26966000  0.11601000  1
  C  C98  1  0.28129000  0.22618000  0.07230000  1
  C  C99  1  0.24529000  0.24556000  0.17856000  1
  C  C100  1  0.25078000  0.20252000  0.13432000  1
  C  C101  1  0.23520000  0.27731000  0.05670000  1
  C  C102  1  0.20472000  0.25364000  0.11869000  1
  C  C103  1  0.21026000  0.21006000  0.07498000  1
  C  C104  1  0.24065000  0.23440000  0.01213000  1
  C  C105  1  0.19931000  0.23171000  0.60075000  1
  C  C106  1  0.18971000  0.27746000  0.56365000  1
  C  C107  1  0.23326000  0.25214000  0.66598000  1
  C  C108  1  0.22373000  0.29747000  0.62862000  1
  C  C109  1  0.23606000  0.22916000  0.53939000  1
  C  C110  1  0.27000000  0.24932000  0.60432000  1
  C  C111  1  0.26044000  0.29530000  0.56732000  1
  C  C112  1  0.22648000  0.27443000  0.50152000  1
  C  C113  1  0.34211000  0.88181000  0.17308000  1
  C  C114  1  0.34615000  0.92681000  0.12725000  1
  C  C115  1  0.34376000  0.90396000  0.25868000  1
  C  C116  1  0.34795000  0.94866000  0.21262000  1
  C  C117  1  0.39263000  0.88111000  0.18033000  1
  C  C118  1  0.39444000  0.90295000  0.26583000  1
  C  C119  1  0.39841000  0.94831000  0.22011000  1
  C  C120  1  0.39693000  0.92573000  0.13414000  1
  C  C121  1  0.39548000  0.55163000  0.12278000  1
  C  C122  1  0.37704000  0.53179000  0.03832000  1
  C  C123  1  0.34744000  0.55432000  0.14960000  1
  C  C124  1  0.32981000  0.53533000  0.06495000  1
  C  C125  1  0.39353000  0.59782000  0.08235000  1
  C  C126  1  0.34628000  0.60097000  0.10928000  1
  C  C127  1  0.32848000  0.58158000  0.02513000  1
  C  C128  1  0.37561000  0.57812000  0.99834000  1
  C  C129  1  0.21596000  0.93948000  0.59112000  1
  C  C130  1  0.22017000  0.89557000  0.54859000  1
  C  C131  1  0.16788000  0.94089000  0.55559000  1
  C  C132  1  0.17224000  0.89733000  0.51314000  1
  C  C133  1  0.23116000  0.96338000  0.51127000  1
  C  C134  1  0.18336000  0.96517000  0.47533000  1
  C  C135  1  0.18735000  0.92089000  0.43281000  1
  C  C136  1  0.23576000  0.91986000  0.46843000  1
  C  C137  1  0.24722000  0.72464000  0.87230000  1
  C  C138  1  0.27264000  0.75542000  0.93569000  1
  C  C139  1  0.29046000  0.71692000  0.83072000  1
  C  C140  1  0.31542000  0.74782000  0.89355000  1
  C  C141  1  0.24038000  0.76414000  0.81243000  1
  C  C142  1  0.28304000  0.75656000  0.76996000  1
  C  C143  1  0.30866000  0.78734000  0.83365000  1
  C  C144  1  0.26536000  0.79500000  0.87524000  1
  C  C145  1  0.28660000  0.76179000  0.38859000  1
  C  C146  1  0.24636000  0.72900000  0.37717000  1
  C  C147  1  0.25621000  0.79996000  0.39159000  1
  C  C148  1  0.21635000  0.76719000  0.37982000  1
  C  C149  1  0.28665000  0.76835000  0.29265000  1
  C  C150  1  0.25658000  0.80653000  0.29527000  1
  C  C151  1  0.21606000  0.77373000  0.28390000  1
  C  C152  1  0.24688000  0.73547000  0.28052000  1
  C  C153  1  0.10703000  0.58022000  0.70420000  1
  C  C154  1  0.12637000  0.56339000  0.79061000  1
  C  C155  1  0.15147000  0.57283000  0.66581000  1
  C  C156  1  0.17059000  0.55668000  0.75229000  1
  C  C157  1  0.12411000  0.62698000  0.72594000  1
  C  C158  1  0.16833000  0.62010000  0.68768000  1
  C  C159  1  0.18750000  0.60343000  0.77404000  1
  C  C160  1  0.14324000  0.61054000  0.81234000  1
  C  C161  1  0.59130000  0.66424000  0.90260000  1
  C  C162  1  0.59742000  0.61446000  0.90614000  1
  C  C163  1  0.63833000  0.67299000  0.94224000  1
  C  C164  1  0.64401000  0.62341000  0.94606000  1
  C  C165  1  0.57413000  0.66066000  0.99112000  1
  C  C166  1  0.62077000  0.66962000  0.03105000  1
  C  C167  1  0.62694000  0.61981000  0.03474000  1
  C  C168  1  0.57964000  0.61111000  0.99518000  1
  C  C169  1  0.94125000  0.63818000  0.74036000  1
  C  C170  1  0.98575000  0.63715000  0.79148000  1
  C  C171  1  0.93590000  0.68512000  0.76743000  1
  C  C172  1  0.98038000  0.68418000  0.81839000  1
  C  C173  1  0.91781000  0.62113000  0.81812000  1
  C  C174  1  0.91250000  0.66800000  0.84553000  1
  C  C175  1  0.95723000  0.66734000  0.89692000  1
  C  C176  1  0.96187000  0.61951000  0.86987000  1
  C  C177  1  0.89935000  0.41146000  0.65636000  1
  C  C178  1  0.90245000  0.42918000  0.74664000  1
  C  C179  1  0.84975000  0.41949000  0.64821000  1
  C  C180  1  0.85299000  0.43659000  0.73790000  1
  C  C181  1  0.88822000  0.36544000  0.69261000  1
  C  C182  1  0.83872000  0.37316000  0.68426000  1
  C  C183  1  0.84183000  0.39060000  0.77426000  1
  C  C184  1  0.89154000  0.38237000  0.78255000  1
  C  C185  1  0.73078000  0.43328000  0.07624000  1
  C  C186  1  0.71198000  0.41223000  0.99389000  1
  C  C187  1  0.68379000  0.44121000  0.10044000  1
  C  C188  1  0.66525000  0.42044000  0.01805000  1
  C  C189  1  0.73274000  0.47800000  0.03066000  1
  C  C190  1  0.68604000  0.48637000  0.05477000  1
  C  C191  1  0.66702000  0.46519000  0.97222000  1
  C  C192  1  0.71435000  0.45746000  0.94806000  1
  C  C193  1  0.57662000  0.81507000  0.21073000  1
  C  C194  1  0.61934000  0.81939000  0.26786000  1
  C  C195  1  0.56802000  0.86327000  0.22634000  1
  C  C196  1  0.61037000  0.86740000  0.28354000  1
  C  C197  1  0.55121000  0.80076000  0.28797000  1
  C  C198  1  0.54216000  0.84869000  0.30382000  1
  C  C199  1  0.58506000  0.85316000  0.36102000  1
  C  C200  1  0.59351000  0.80473000  0.34534000  1
  C  C201  1  0.93294000  0.86927000  0.41553000  1
  C  C202  1  0.93617000  0.82012000  0.39920000  1
  C  C203  1  0.95174000  0.86194000  0.50680000  1
  C  C204  1  0.95473000  0.81289000  0.49023000  1
  C  C205  1  0.88623000  0.85956000  0.44485000  1
  C  C206  1  0.90453000  0.85233000  0.53609000  1
  C  C207  1  0.90801000  0.80297000  0.51985000  1
  C  C208  1  0.88904000  0.81046000  0.42842000  1
  C  C209  1  0.73236000  0.74441000  0.10191000  1
  C  C210  1  0.71109000  0.78554000  0.06458000  1
  C  C211  1  0.77262000  0.77252000  0.13632000  1
  C  C212  1  0.75136000  0.81349000  0.09899000  1
  C  C213  1  0.75525000  0.73970000  0.01948000  1
  C  C214  1  0.79553000  0.76770000  0.05373000  1
  C  C215  1  0.77429000  0.80936000  0.01660000  1
  C  C216  1  0.73390000  0.78053000  0.98148000  1
  C  C217  1  0.75941000  0.73306000  0.63950000  1
  C  C218  1  0.73077000  0.73924000  0.55745000  1
  C  C219  1  0.79968000  0.75453000  0.59771000  1
  C  C220  1  0.77101000  0.76078000  0.51566000  1
  C  C221  1  0.77172000  0.68853000  0.60985000  1
  C  C222  1  0.81200000  0.70984000  0.56795000  1
  C  C223  1  0.78344000  0.71636000  0.48511000  1
  C  C224  1  0.74299000  0.69403000  0.52792000  1
  C  C225  1  0.80927000  0.06420000  0.44100000  1
  C  C226  1  0.85895000  0.05745000  0.45623000  1
  C  C227  1  0.81286000  0.09972000  0.50822000  1
  C  C228  1  0.86232000  0.09254000  0.52344000  1
  C  C229  1  0.79948000  0.02962000  0.50996000  1
  C  C230  1  0.80273000  0.06464000  0.57730000  1
  C  C231  1  0.85261000  0.05803000  0.59259000  1
  C  C232  1  0.84889000  0.02238000  0.52528000  1
  C  C233  1  0.66903000  0.10935000  0.21672000  1
  C  C234  1  0.62378000  0.11764000  0.24909000  1
  C  C235  1  0.65381000  0.12717000  0.12885000  1
  C  C236  1  0.60849000  0.13560000  0.16119000  1
  C  C237  1  0.65172000  0.06299000  0.19193000  1
  C  C238  1  0.63648000  0.08044000  0.10375000  1
  C  C239  1  0.59076000  0.08930000  0.13612000  1
  C  C240  1  0.60636000  0.07108000  0.22434000  1
  O  O1  1  0.68189000  0.99271000  0.16040000  1
  O  O2  1  0.69880000  0.02061000  0.29039000  1
  O  O3  1  0.72801000  0.89945000  0.41190000  1
  O  O4  1  0.76897000  0.95895000  0.55504000  1
  O  O5  1  0.65257000  0.93463000  0.32742000  1
  O  O6  1  0.72872000  0.99709000  0.45574000  1
  O  O7  1  0.67114000  0.90024000  0.20966000  1
  O  O8  1  0.78384000  0.83832000  0.52732000  1
  O  O9  1  0.76070000  0.81250000  0.39649000  1
  O  O10  1  0.75819000  0.94247000  0.28311000  1
  O  O11  1  0.74836000  0.89171000  0.11895000  1
  O  O12  1  0.82707000  0.87779000  0.34186000  1
  O  O13  1  0.73591000  0.84428000  0.23037000  1
  O  O14  1  0.83064000  0.91227000  0.46630000  1
  O  O15  1  0.83205000  0.51020000  0.70591000  1
  O  O16  1  0.81586000  0.47963000  0.83325000  1
  O  O17  1  0.80497000  0.60282000  0.93897000  1
  O  O18  1  0.76984000  0.54373000  0.08708000  1
  O  O19  1  0.87245000  0.55823000  0.86268000  1
  O  O20  1  0.80558000  0.50543000  0.99550000  1
  O  O21  1  0.84844000  0.59946000  0.74882000  1
  O  O22  1  0.74274000  0.66134000  0.03120000  1
  O  O23  1  0.76994000  0.68984000  0.90878000  1
  O  O24  1  0.76502000  0.56031000  0.81481000  1
  O  O25  1  0.76804000  0.61084000  0.64451000  1
  O  O26  1  0.70331000  0.62421000  0.85390000  1
  O  O27  1  0.78897000  0.65876000  0.74886000  1
  O  O28  1  0.70711000  0.57964000  0.96964000  1
  O  O29  1  0.13812000  0.76123000  0.39778000  1
  O  O30  1  0.18586000  0.77593000  0.51413000  1
  O  O31  1  0.08757000  0.78432000  0.68884000  1
  O  O32  1  0.16541000  0.78491000  0.81418000  1
  O  O33  1  0.14032000  0.84110000  0.59960000  1
  O  O34  1  0.18880000  0.75923000  0.69171000  1
  O  O35  1  0.12073000  0.84002000  0.46027000  1
  O  O36  1  0.05208000  0.72194000  0.84275000  1
  O  O37  1  0.00680000  0.74486000  0.73518000  1
  O  O38  1  0.09829000  0.74232000  0.55551000  1
  O  O39  1  0.03347000  0.80759000  0.48108000  1
  O  O40  1  0.06605000  0.67730000  0.67669000  1
  O  O41  1  0.99694000  0.75363000  0.55838000  1
  O  O42  1  0.12749000  0.70395000  0.75364000  1
  O  O43  1  0.36353000  0.78983000  0.28940000  1
  O  O44  1  0.33053000  0.75479000  0.17527000  1
  O  O45  1  0.45513000  0.75248000  0.07087000  1
  O  O46  1  0.39468000  0.74215000  0.90830000  1
  O  O47  1  0.39367000  0.81660000  0.10037000  1
  O  O48  1  0.35429000  0.72474000  0.02169000  1
  O  O49  1  0.44153000  0.82290000  0.21424000  1
  O  O50  1  0.49927000  0.68087000  0.96318000  1
  O  O51  1  0.53488000  0.70089000  0.08753000  1
  O  O52  1  0.41873000  0.72252000  0.20590000  1
  O  O53  1  0.48383000  0.76684000  0.33899000  1
  O  O54  1  0.45515000  0.64759000  0.13416000  1
  O  O55  1  0.52030000  0.72807000  0.24834000  1
  O  O56  1  0.41246000  0.66734000  0.01709000  1
  O  O57  1  0.31652000  0.01832000  0.17913000  1
  O  O58  1  0.30469000  0.98543000  0.30657000  1
  O  O59  1  0.29420000  0.10073000  0.43585000  1
  O  O60  1  0.25787000  0.03255000  0.56813000  1
  O  O61  1  0.36256000  0.06332000  0.34392000  1
  O  O62  1  0.29839000  0.00252000  0.47233000  1
  O  O63  1  0.33503000  0.10558000  0.23459000  1
  O  O64  1  0.22943000  0.15094000  0.53868000  1
  O  O65  1  0.25709000  0.18679000  0.42299000  1
  O  O66  1  0.25429000  0.06395000  0.30533000  1
  O  O67  1  0.25325000  0.12343000  0.14597000  1
  O  O68  1  0.19288000  0.12449000  0.35175000  1
  O  O69  1  0.27848000  0.16429000  0.25870000  1
  O  O70  1  0.19369000  0.07427000  0.45940000  1
  O  O71  1  0.29123000  0.46342000  0.07950000  1
  O  O72  1  0.26620000  0.51063000  0.97723000  1
  O  O73  1  0.24342000  0.41440000  0.79822000  1
  O  O74  1  0.17369000  0.47784000  0.74330000  1
  O  O75  1  0.32028000  0.44561000  0.90098000  1
  O  O76  1  0.23490000  0.51549000  0.80390000  1
  O  O77  1  0.29635000  0.38658000  0.98146000  1
  O  O78  1  0.21389000  0.37423000  0.64304000  1
  O  O79  1  0.20687000  0.32808000  0.76037000  1
  O  O80  1  0.21378000  0.42901000  0.94087000  1
  O  O81  1  0.22045000  0.35355000  0.06375000  1
  O  O82  1  0.14682000  0.37333000  0.85939000  1
  O  O83  1  0.23442000  0.32670000  0.93577000  1
  O  O84  1  0.13893000  0.38992000  0.72026000  1
  O  O85  1  0.84830000  0.27013000  0.77438000  1
  O  O86  1  0.81310000  0.24818000  0.64995000  1
  O  O87  1  0.93756000  0.24038000  0.54629000  1
  O  O88  1  0.88097000  0.24441000  0.37934000  1
  O  O89  1  0.88345000  0.30754000  0.59441000  1
  O  O90  1  0.83649000  0.22574000  0.48706000  1
  O  O91  1  0.92911000  0.30002000  0.71087000  1
  O  O92  1  0.98035000  0.17255000  0.42396000  1
  O  O93  1  0.01214000  0.18464000  0.55462000  1
  O  O94  1  0.89625000  0.20439000  0.67127000  1
  O  O95  1  0.96296000  0.23127000  0.81828000  1
  O  O96  1  0.92865000  0.13330000  0.58038000  1
  O  O97  1  0.99683000  0.19754000  0.71741000  1
  O  O98  1  0.88956000  0.16163000  0.46569000  1
  O  O99  1  0.62379000  0.29790000  0.85882000  1
  O  O100  1  0.67209000  0.30445000  0.97638000  1
  O  O101  1  0.57525000  0.29586000  0.15762000  1
  O  O102  1  0.65390000  0.28942000  0.27707000  1
  O  O103  1  0.62713000  0.36077000  0.08599000  1
  O  O104  1  0.67811000  0.27398000  0.14858000  1
  O  O105  1  0.61093000  0.37122000  0.94716000  1
  O  O106  1  0.54301000  0.22260000  0.29415000  1
  O  O107  1  0.49435000  0.24914000  0.19452000  1
  O  O108  1  0.58569000  0.26650000  0.01212000  1
  O  O109  1  0.52219000  0.33785000  0.96416000  1
  O  O110  1  0.55380000  0.19054000  0.11385000  1
  O  O111  1  0.48453000  0.27754000  0.02157000  1
  O  O112  1  0.61635000  0.21266000  0.19251000  1
