# Generated by REPEAT Assigner based on pymatgen
data_DB7-ddmof_15352
_audit_creation_date              2022-05-24
_audit_creation_method            REPEAT_Assigner
_cell_length_a                    26.117060
_cell_length_b                    25.882430
_cell_length_c                    63.093930
_cell_angle_alpha                 89.957430
_cell_angle_beta                  89.884400
_cell_angle_gamma                 89.975500
_cell_volume                      42649.689258
_symmetry_space_group_name_H-M    P1
_symmetry_Int_Tables_number       1
loop_
    _symmetry_equiv_pos_site_id
    _symmetry_equiv_pos_as_xyz
    1  x,y,z
loop_
    _atom_site_type_symbol
    _atom_site_label
    _atom_site_fract_x
    _atom_site_fract_y
    _atom_site_fract_z
    _atom_type_partial_charge
    C   C1    0.924470  0.701640  0.337030  0.757611
    C   C2    0.081890  0.822590  0.294180  0.361808
    C   C3    0.041340  0.679010  0.285620  0.585066
    C   C4    0.938520  0.839640  0.284280  0.701962
    C   C5    0.871580  0.678100  0.695280  0.731422
    C   C6    0.021970  0.810100  0.735760  0.562332
    C   C7    0.872840  0.816290  0.740680  0.838835
    C   C8    0.987180  0.668110  0.753940  0.723004
    C   C9    0.853820  0.515090  0.635890  0.902139
    C   C10   0.861690  0.546770  0.670710  1.064650
    C   C11   0.911930  0.476200  0.659570  0.989735
    C   C12   0.903150  0.577650  0.418290  0.943668
    C   C13   0.921240  0.622530  0.386720  0.998905
    C   C14   0.968960  0.548510  0.395690  0.816136
    C   C15   0.957980  0.124880  0.832650  0.651998
    C   C16   0.072120  0.952540  0.797380  0.466540
    C   C17   0.927640  0.994400  0.787270  0.671891
    C   C18   0.084440  0.097760  0.777850  0.559437
    C   C19   0.049210  0.107170  0.172940  0.760800
    C   C20   0.137510  0.961130  0.232710  0.430322
    C   C21   0.164420  0.109240  0.227890  0.690947
    C   C22   0.000620  0.015270  0.235950  0.634947
    C   C23   0.815410  0.192570  0.894590  0.952693
    C   C24   0.765190  0.132180  0.875880  0.900849
    C   C25   0.837660  0.169260  0.859650  0.934208
    C   C26   0.902100  0.129190  0.105100  0.942788
    C   C27   0.862630  0.070370  0.128510  0.897291
    C   C28   0.931080  0.122030  0.140270  0.950660
    C   C29   0.428000  0.043890  0.343270  0.676327
    C   C30   0.276900  0.923480  0.296680  0.192874
    C   C31   0.326830  0.065140  0.286120  0.651513
    C   C32   0.420650  0.900070  0.293680  0.625719
    C   C33   0.379200  0.004540  0.680180  0.746936
    C   C34   0.186740  0.950740  0.720400  0.873826
    C   C35   0.322950  0.898410  0.733970  0.814999
    C   C36   0.261350  0.078030  0.730210  0.764701
    C   C37   0.444100  0.163540  0.622490  0.990792
    C   C38   0.381090  0.197420  0.645370  0.928624
    C   C39   0.426740  0.122590  0.655030  0.957115
    C   C40   0.476440  0.202980  0.402770  0.918415
    C   C41   0.423550  0.248160  0.378860  0.953417
    C   C42   0.463390  0.170670  0.368330  1.039869
    C   C43   0.313110  0.616610  0.846670  0.709707
    C   C44   0.172390  0.757040  0.804330  0.827393
    C   C45   0.314710  0.721300  0.788960  0.770417
    C   C46   0.164240  0.609590  0.800140  0.672080
    C   C47   0.346390  0.609790  0.187040  0.742268
    C   C48   0.245250  0.768450  0.237410  0.526441
    C   C49   0.215680  0.621170  0.235480  0.731587
    C   C50   0.378310  0.713080  0.249020  0.741849
    C   C51   0.477180  0.578650  0.904650  0.932556
    C   C52   0.443020  0.596790  0.870940  0.918590
    C   C53   0.513250  0.644590  0.883600  0.863218
    C   C54   0.496600  0.569420  0.123140  0.897383
    C   C55   0.541540  0.626440  0.145500  0.975166
    C   C56   0.469070  0.582200  0.158320  1.016851
    C   C57   0.472550  0.553250  0.925520  -0.165241
    C   C58   0.516600  0.543400  0.937600  -0.101020
    C   C59   0.512140  0.528990  0.958880  -0.141661
    C   C60   0.463610  0.524020  0.968240  0.142994
    C   C61   0.419590  0.529900  0.955740  -0.192560
    C   C62   0.424010  0.544500  0.934470  -0.060716
    C   C63   0.458970  0.519620  0.991500  0.070033
    C   C64   0.481390  0.477810  0.002220  -0.162073
    C   C65   0.483280  0.477470  0.024380  -0.132763
    C   C66   0.462830  0.518960  0.035970  0.045478
    C   C67   0.438320  0.559520  0.025250  -0.141198
    C   C68   0.436390  0.559840  0.003130  -0.149955
    C   C69   0.471330  0.522560  0.059050  0.145761
    C   C70   0.521370  0.525870  0.067000  -0.125751
    C   C71   0.529620  0.538290  0.088270  -0.163781
    C   C72   0.487880  0.547900  0.101790  -0.110635
    C   C73   0.437790  0.541400  0.094140  -0.092778
    C   C74   0.429590  0.528690  0.072870  -0.169796
    C   C75   0.380620  0.591200  0.170140  -0.125211
    C   C76   0.429030  0.577560  0.174590  -0.307726
    C   C77   0.352460  0.601030  0.862030  -0.094708
    C   C78   0.400800  0.592340  0.855720  -0.282214
    C   C79   0.469680  0.163930  0.601700  -0.132797
    C   C80   0.468610  0.119730  0.588830  -0.111449
    C   C81   0.483620  0.122900  0.567570  -0.140750
    C   C82   0.500100  0.170220  0.559080  0.102728
    C   C83   0.504890  0.213360  0.572390  -0.118370
    C   C84   0.489530  0.210290  0.593580  -0.127720
    C   C85   0.505730  0.176320  0.535930  0.079981
    C   C86   0.541910  0.146890  0.524710  -0.184456
    C   C87   0.545120  0.150870  0.502620  -0.136474
    C   C88   0.512190  0.184330  0.491620  0.079440
    C   C89   0.476530  0.214190  0.502900  -0.185532
    C   C90   0.473300  0.210190  0.524920  -0.125283
    C   C91   0.513160  0.186430  0.468250  0.105425
    C   C92   0.498690  0.142990  0.456390  -0.122660
    C   C93   0.489920  0.147540  0.434610  -0.123714
    C   C94   0.495330  0.195660  0.424540  -0.092927
    C   C95   0.513230  0.238210  0.436160  -0.172005
    C   C96   0.522240  0.233570  0.457900  -0.114989
    C   C97   0.322130  0.856320  0.749800  -0.324370
    C   C98   0.367440  0.828860  0.754180  0.036889
    C   C99   0.365980  0.784310  0.767000  -0.022072
    C   C100  0.318400  0.765050  0.774060  -0.012985
    C   C101  0.273540  0.790590  0.768300  -0.358737
    C   C102  0.275470  0.838420  0.758350  0.300761
    C   C103  0.231600  0.871520  0.760330  0.182459
    C   C104  0.413010  0.757830  0.772120  0.286398
    C   C105  0.408230  0.033400  0.664010  -0.171140
    C   C106  0.431690  0.077780  0.669100  -0.227686
    C   C107  0.418520  0.846840  0.284960  0.135289
    C   C108  0.445150  0.835700  0.266180  -0.298483
    C   C109  0.436400  0.789250  0.255350  0.235790
    C   C110  0.399030  0.754260  0.262910  -0.115816
    C   C111  0.376740  0.762720  0.282860  0.056310
    C   C112  0.386270  0.808500  0.293970  -0.163301
    C   C113  0.362150  0.815800  0.314380  0.428780
    C   C114  0.466740  0.777330  0.236820  0.281128
    C   C115  0.446210  0.080910  0.359260  -0.115304
    C   C116  0.464910  0.127120  0.353440  -0.314246
    C   C117  0.578710  0.669040  0.147910  -0.188640
    C   C118  0.624550  0.668920  0.136210  -0.127863
    C   C119  0.656700  0.712120  0.136480  -0.129787
    C   C120  0.643380  0.755740  0.148480  0.107215
    C   C121  0.598810  0.755040  0.160900  -0.164707
    C   C122  0.566630  0.711930  0.160640  -0.041124
    C   C123  0.674040  0.803370  0.146840  0.080730
    C   C124  0.724380  0.804580  0.154550  -0.142195
    C   C125  0.753900  0.849340  0.152340  -0.154293
    C   C126  0.733330  0.893120  0.142350  0.037170
    C   C127  0.682790  0.892100  0.134890  -0.154487
    C   C128  0.653250  0.847420  0.137130  -0.143187
    C   C129  0.765410  0.939140  0.138810  0.167142
    C   C130  0.780850  0.952350  0.118220  -0.212906
    C   C131  0.811820  0.995570  0.114820  -0.071788
    C   C132  0.827570  0.026240  0.132010  -0.143475
    C   C133  0.811410  0.013280  0.152620  -0.027842
    C   C134  0.780640  0.969810  0.155990  -0.200945
    C   C135  0.728190  0.088940  0.876590  -0.215293
    C   C136  0.717290  0.064180  0.895940  0.004561
    C   C137  0.691020  0.017180  0.896140  -0.231881
    C   C138  0.675370  0.994420  0.877060  0.140809
    C   C139  0.682870  0.020840  0.857890  -0.194326
    C   C140  0.708850  0.068060  0.857660  -0.052152
    C   C141  0.654900  0.941320  0.877020  0.046762
    C   C142  0.685100  0.900290  0.884470  -0.144975
    C   C143  0.665520  0.850080  0.884810  -0.156090
    C   C144  0.615690  0.840420  0.877610  0.065534
    C   C145  0.585740  0.881260  0.869840  -0.152528
    C   C146  0.605260  0.931560  0.869560  -0.144695
    C   C147  0.593970  0.788060  0.879170  0.120362
    C   C148  0.582780  0.766830  0.899090  -0.223665
    C   C149  0.558590  0.718840  0.900600  -0.021086
    C   C150  0.545340  0.691530  0.882140  -0.193178
    C   C151  0.558750  0.711860  0.862220  -0.008615
    C   C152  0.582710  0.760030  0.860750  -0.185030
    C   C153  0.907780  0.150230  0.083490  -0.154424
    C   C154  0.898790  0.118340  0.065890  -0.126035
    C   C155  0.900050  0.138860  0.045450  -0.148764
    C   C156  0.910800  0.191420  0.042290  0.156592
    C   C157  0.921260  0.223120  0.059800  -0.149297
    C   C158  0.919780  0.202600  0.080340  -0.118477
    C   C159  0.908280  0.213480  0.020720  0.043619
    C   C160  0.937300  0.191360  0.004320  -0.203944
    C   C161  0.925520  0.202210  0.983200  -0.093692
    C   C162  0.885200  0.236090  0.978270  0.048764
    C   C163  0.860040  0.262550  0.994710  -0.176925
    C   C164  0.871230  0.250950  0.015860  -0.120424
    C   C165  0.864470  0.237540  0.956460  0.184319
    C   C166  0.812900  0.225060  0.952870  -0.206553
    C   C167  0.795710  0.214870  0.932350  -0.005993
    C   C168  0.830200  0.215750  0.915200  -0.288299
    C   C169  0.880620  0.233100  0.918570  0.066386
    C   C170  0.897520  0.244210  0.939100  -0.261301
    C   C171  0.289980  0.085580  0.270240  0.024985
    C   C172  0.246240  0.112310  0.277260  -0.008107
    C   C173  0.206520  0.123950  0.263170  -0.076321
    C   C174  0.210000  0.108220  0.241820  -0.081801
    C   C175  0.256070  0.086730  0.234330  0.090766
    C   C176  0.296640  0.076910  0.248290  -0.269242
    C   C177  0.345970  0.062560  0.239750  0.510201
    C   C178  0.162780  0.152850  0.270700  0.391389
    C   C179  0.218120  0.817650  0.234810  0.261913
    C   C180  0.164530  0.817960  0.234030  -0.133488
    C   C181  0.137940  0.864690  0.232290  -0.267460
    C   C182  0.165010  0.911780  0.232730  0.275081
    C   C183  0.218600  0.911550  0.233510  -0.092920
    C   C184  0.245350  0.864680  0.234070  -0.253342
    C   C185  0.300620  0.864990  0.233120  0.589690
    C   C186  0.083240  0.864080  0.228900  0.607086
    C   C187  0.968710  0.134300  0.156750  -0.295822
    C   C188  0.017790  0.120030  0.154320  -0.135698
    C   C189  0.096120  0.903140  0.803560  0.221356
    C   C190  0.148820  0.901180  0.807740  0.068703
    C   C191  0.173680  0.853340  0.809980  0.048129
    C   C192  0.145790  0.807030  0.807270  -0.114223
    C   C193  0.092370  0.809330  0.804990  -0.058001
    C   C194  0.067350  0.857170  0.803850  -0.322744
    C   C195  0.012190  0.858880  0.804340  0.564479
    C   C196  0.227990  0.852240  0.814250  0.318669
    C   C197  0.219380  0.107620  0.740420  -0.091479
    C   C198  0.223070  0.117790  0.762230  -0.061224
    C   C199  0.178880  0.119750  0.774830  -0.140545
    C   C200  0.130340  0.112920  0.765310  0.189621
    C   C201  0.126810  0.114760  0.743070  -0.221419
    C   C202  0.171150  0.112700  0.730560  0.139802
    C   C203  0.166900  0.118230  0.707860  0.309337
    C   C204  0.183860  0.130530  0.797190  0.314766
    C   C205  0.924910  0.151070  0.848200  -0.080759
    C   C206  0.877060  0.165310  0.843090  -0.329891
    C   C207  0.382010  0.286160  0.375490  -0.222376
    C   C208  0.341570  0.274750  0.361560  0.030283
    C   C209  0.298000  0.306030  0.361100  -0.265789
    C   C210  0.294310  0.349000  0.374530  0.193297
    C   C211  0.335930  0.362450  0.387410  -0.188148
    C   C212  0.379700  0.331310  0.387830  -0.066436
    C   C213  0.245300  0.376810  0.376570  0.031840
    C   C214  0.241770  0.429020  0.370760  -0.107550
    C   C215  0.195490  0.455570  0.373220  -0.196774
    C   C216  0.152480  0.430100  0.381560  0.109360
    C   C217  0.155920  0.377770  0.387170  -0.178528
    C   C218  0.202130  0.351250  0.384700  -0.119796
    C   C219  0.104390  0.458620  0.385100  0.103786
    C   C220  0.076700  0.478140  0.367830  -0.128715
    C   C221  0.031600  0.506070  0.371240  -0.014835
    C   C222  0.013930  0.515020  0.391980  -0.127081
    C   C223  0.041300  0.494570  0.409230  -0.082506
    C   C224  0.086270  0.466520  0.405780  -0.189876
    C   C225  0.336610  0.231860  0.648750  -0.181440
    C   C226  0.319690  0.242990  0.669430  -0.050700
    C   C227  0.274180  0.270400  0.672630  -0.206697
    C   C228  0.245330  0.287290  0.655220  0.166847
    C   C229  0.262990  0.277740  0.634590  -0.193470
    C   C230  0.308370  0.250190  0.631350  -0.037833
    C   C231  0.196030  0.313900  0.658570  0.022663
    C   C232  0.154660  0.287430  0.667780  -0.063199
    C   C233  0.107130  0.311810  0.669920  -0.174233
    C   C234  0.100640  0.362850  0.662890  0.063078
    C   C235  0.142220  0.389530  0.653970  -0.133782
    C   C236  0.189710  0.365160  0.651830  -0.168900
    C   C237  0.050030  0.387970  0.664290  0.141769
    C   C238  0.043730  0.432710  0.676550  -0.185816
    C   C239  0.997680  0.460170  0.675860  0.000979
    C   C240  0.957380  0.443110  0.662870  -0.217163
    C   C241  0.962830  0.396760  0.651500  -0.105745
    C   C242  0.008990  0.369400  0.652170  -0.164096
    C   C243  0.835350  0.521850  0.614030  -0.067839
    C   C244  0.835450  0.571100  0.604670  -0.167414
    C   C245  0.827660  0.576390  0.582860  -0.101752
    C   C246  0.819380  0.532530  0.570250  0.094560
    C   C247  0.815300  0.483790  0.579880  -0.098509
    C   C248  0.823470  0.478440  0.601660  -0.183756
    C   C249  0.821960  0.536710  0.546940  0.067951
    C   C250  0.787500  0.568580  0.535950  -0.132051
    C   C251  0.792650  0.575450  0.514040  -0.196929
    C   C252  0.832210  0.550420  0.502990  0.091498
    C   C253  0.866030  0.517870  0.513950  -0.142998
    C   C254  0.860950  0.511080  0.535800  -0.161422
    C   C255  0.839900  0.559940  0.480160  0.103616
    C   C256  0.854970  0.609060  0.473060  -0.131159
    C   C257  0.872400  0.615760  0.452260  -0.136935
    C   C258  0.875120  0.573320  0.438460  -0.098020
    C   C259  0.856550  0.525080  0.445120  -0.124412
    C   C260  0.838850  0.518460  0.465860  -0.133710
    C   C261  0.063820  0.845640  0.730010  0.025535
    C   C262  0.053100  0.898210  0.726810  -0.124175
    C   C263  0.092420  0.932550  0.721150  -0.014183
    C   C264  0.143130  0.914490  0.719380  0.001500
    C   C265  0.152660  0.861160  0.720180  -0.042206
    C   C266  0.113730  0.826860  0.726220  0.011238
    C   C267  0.125540  0.772720  0.728950  0.555379
    C   C268  0.079840  0.984990  0.715370  0.382801
    C   C269  0.871330  0.866990  0.751390  -0.154616
    C   C270  0.889560  0.910880  0.740710  -0.004598
    C   C271  0.902830  0.955390  0.752060  -0.203915
    C   C272  0.900080  0.955170  0.774460  -0.064859
    C   C273  0.874640  0.914350  0.784680  0.029810
    C   C274  0.860310  0.870270  0.773260  0.026251
    C   C275  0.835020  0.828270  0.784140  0.319980
    C   C276  0.916330  0.001710  0.740560  0.519753
    C   C277  0.111080  0.611340  0.791940  0.065572
    C   C278  0.100860  0.588190  0.772270  -0.237814
    C   C279  0.058800  0.604120  0.760120  0.085993
    C   C280  0.026780  0.644200  0.767620  -0.021670
    C   C281  0.033250  0.662480  0.788390  -0.013278
    C   C282  0.074290  0.645360  0.800770  -0.018141
    C   C283  0.078440  0.663470  0.822350  0.355895
    C   C284  0.048020  0.577990  0.740400  0.280146
    C   C285  0.855700  0.638090  0.680130  -0.159024
    C   C286  0.853170  0.588380  0.686190  -0.301052
    C   C287  0.131520  0.847760  0.297740  0.203961
    C   C288  0.133930  0.901820  0.298860  -0.034661
    C   C289  0.181300  0.926980  0.299890  -0.313773
    C   C290  0.226940  0.897900  0.299190  0.410898
    C   C291  0.224430  0.843780  0.298370  -0.211047
    C   C292  0.177060  0.818610  0.297900  -0.180596
    C   C293  0.175600  0.762890  0.297160  0.513437
    C   C294  0.182650  0.982620  0.301290  0.507920
    C   C295  0.974480  0.977410  0.249940  -0.009180
    C   C296  0.989380  0.973160  0.271220  -0.067526
    C   C297  0.973710  0.930870  0.283480  -0.026709
    C   C298  0.943700  0.891250  0.274170  0.038687
    C   C299  0.924320  0.898530  0.253660  -0.292661
    C   C300  0.938660  0.941830  0.241670  0.222638
    C   C301  0.915450  0.950090  0.221170  0.188918
    C   C302  0.988870  0.928670  0.305470  0.374146
    C   C303  0.080230  0.655280  0.271260  -0.018266
    C   C304  0.084600  0.673070  0.250310  -0.044881
    C   C305  0.127370  0.660240  0.237970  0.018986
    C   C306  0.165990  0.627910  0.246440  -0.024490
    C   C307  0.158930  0.605690  0.266490  -0.312883
    C   C308  0.115590  0.617790  0.278680  0.294069
    C   C309  0.106630  0.589660  0.298120  0.186817
    C   C310  0.131740  0.681540  0.216870  0.338952
    C   C311  0.908510  0.661090  0.351950  -0.140951
    C   C312  0.913840  0.667550  0.372910  -0.328961
    Cd  Cd1   0.984970  0.756600  0.308070  1.371268
    Cd  Cd2   0.020670  0.778830  0.254270  1.090745
    Cd  Cd3   0.931820  0.732900  0.724210  1.364052
    Cd  Cd4   0.954150  0.776820  0.776340  1.139903
    Cd  Cd5   0.007450  0.054380  0.805970  1.361539
    Cd  Cd6   0.025530  0.001460  0.754800  1.103376
    Cd  Cd7   0.082230  0.053880  0.209060  1.351713
    Cd  Cd8   0.098970  0.049520  0.264780  1.071204
    Cd  Cd9   0.372360  0.988860  0.312930  1.354476
    Cd  Cd10  0.349520  0.959240  0.258580  1.085149
    Cd  Cd11  0.298450  0.986270  0.708520  1.471891
    Cd  Cd12  0.252550  0.980690  0.761580  1.051020
    Cd  Cd13  0.249220  0.666950  0.817760  1.435968
    Cd  Cd14  0.209450  0.687600  0.764640  1.083770
    Cd  Cd15  0.304800  0.670520  0.219470  1.389146
    Cd  Cd16  0.271350  0.685610  0.273680  1.094102
    H   H1    0.554280  0.548800  0.930750  0.104014
    H   H2    0.546380  0.524040  0.968330  0.118819
    H   H3    0.381950  0.525360  0.962750  0.122752
    H   H4    0.389680  0.551460  0.925290  0.103784
    H   H5    0.498530  0.446350  0.993380  0.111302
    H   H6    0.501830  0.445710  0.032520  0.107316
    H   H7    0.422470  0.591760  0.034030  0.119044
    H   H8    0.419050  0.592310  0.995010  0.125077
    H   H9    0.553870  0.520840  0.056500  0.112017
    H   H10   0.568450  0.541970  0.094080  0.132616
    H   H11   0.405200  0.548290  0.104400  0.112410
    H   H12   0.390800  0.525520  0.066950  0.113422
    H   H13   0.369430  0.597660  0.153760  0.151997
    H   H14   0.440750  0.572810  0.191000  0.156113
    H   H15   0.343920  0.604740  0.878830  0.136119
    H   H16   0.409900  0.591210  0.838910  0.152070
    H   H17   0.453670  0.083640  0.594960  0.110311
    H   H18   0.480110  0.089260  0.557470  0.129881
    H   H19   0.518450  0.249830  0.566080  0.101522
    H   H20   0.491370  0.244420  0.603490  0.112565
    H   H21   0.567190  0.120720  0.533070  0.123490
    H   H22   0.572830  0.127710  0.494050  0.112672
    H   H23   0.450680  0.239800  0.494540  0.125388
    H   H24   0.444980  0.232750  0.533420  0.116925
    H   H25   0.491910  0.106340  0.464210  0.100534
    H   H26   0.476430  0.114330  0.425800  0.125418
    H   H27   0.518500  0.275290  0.428470  0.128353
    H   H28   0.534250  0.267120  0.466870  0.109842
    H   H29   0.403610  0.842180  0.747700  0.172016
    H   H30   0.237040  0.775570  0.773310  0.064230
    H   H31   0.400170  0.025310  0.647430  0.142716
    H   H32   0.442420  0.084860  0.685470  0.139412
    H   H33   0.471950  0.863670  0.259750  0.175431
    H   H34   0.350250  0.734630  0.289380  -0.047925
    H   H35   0.437010  0.073710  0.375810  0.162568
    H   H36   0.472350  0.135160  0.336810  0.163834
    H   H37   0.634810  0.635800  0.126600  0.127103
    H   H38   0.691250  0.712210  0.126950  0.110695
    H   H39   0.588480  0.788400  0.170350  0.119425
    H   H40   0.531460  0.712640  0.169770  0.146997
    H   H41   0.740670  0.770800  0.162120  0.100206
    H   H42   0.792940  0.849790  0.158120  0.131432
    H   H43   0.666590  0.925750  0.127180  0.115070
    H   H44   0.614430  0.846800  0.131110  0.118334
    H   H45   0.769280  0.928790  0.104880  0.136183
    H   H46   0.824280  0.004630  0.098860  0.116728
    H   H47   0.822700  0.036770  0.166020  0.086727
    H   H48   0.768610  0.960000  0.171940  0.138780
    H   H49   0.731180  0.080050  0.910720  0.109970
    H   H50   0.684380  0.997560  0.911070  0.143184
    H   H51   0.670170  0.003940  0.843100  0.146834
    H   H52   0.715550  0.087440  0.842680  0.103800
    H   H53   0.723680  0.907380  0.890050  0.129426
    H   H54   0.688930  0.818730  0.890790  0.117659
    H   H55   0.547140  0.874140  0.864310  0.133701
    H   H56   0.581690  0.962960  0.863750  0.105465
    H   H57   0.591660  0.788130  0.913400  0.143392
    H   H58   0.548610  0.703780  0.916090  0.103779
    H   H59   0.549750  0.690830  0.847860  0.090046
    H   H60   0.591890  0.775880  0.845310  0.140581
    H   H61   0.890280  0.077710  0.068080  0.124129
    H   H62   0.891730  0.114090  0.032050  0.133901
    H   H63   0.929830  0.263700  0.057530  0.118874
    H   H64   0.926780  0.227630  0.093780  0.125478
    H   H65   0.966880  0.163350  0.007930  0.144960
    H   H66   0.945720  0.182010  0.970690  0.091271
    H   H67   0.829910  0.289950  0.991110  0.121894
    H   H68   0.849170  0.268940  0.028400  0.107388
    H   H69   0.786730  0.220620  0.966090  0.135997
    H   H70   0.756110  0.203950  0.929940  0.082137
    H   H71   0.907390  0.235790  0.905490  0.079416
    H   H72   0.936990  0.255500  0.941600  0.138668
    H   H73   0.242480  0.122900  0.293820  0.149675
    H   H74   0.260150  0.077070  0.217680  0.071740
    H   H75   0.143560  0.781900  0.234810  -0.003666
    H   H76   0.239450  0.947830  0.233580  -0.053333
    H   H77   0.954580  0.144980  0.172350  0.160012
    H   H78   0.031500  0.108350  0.138760  0.137666
    H   H79   0.170740  0.936720  0.808530  0.046780
    H   H80   0.070340  0.773910  0.803970  0.167534
    H   H81   0.260470  0.119660  0.769650  0.110970
    H   H82   0.089570  0.116190  0.735530  0.139402
    H   H83   0.936580  0.150990  0.864730  0.156264
    H   H84   0.864830  0.164150  0.826640  0.170235
    H   H85   0.342870  0.240440  0.351750  0.104321
    H   H86   0.266330  0.295850  0.350850  0.143359
    H   H87   0.333660  0.395980  0.397640  0.129652
    H   H88   0.411100  0.341430  0.398220  0.105577
    H   H89   0.274870  0.449020  0.364420  0.077669
    H   H90   0.193190  0.496020  0.368890  0.144120
    H   H91   0.122880  0.357790  0.393570  0.112397
    H   H92   0.204560  0.310980  0.389290  0.111776
    H   H93   0.090200  0.471790  0.351800  0.097761
    H   H94   0.010610  0.521020  0.357770  0.076944
    H   H95   0.028460  0.501430  0.425320  0.106308
    H   H96   0.107430  0.451540  0.419200  0.132600
    H   H97   0.341410  0.229830  0.683010  0.100174
    H   H98   0.261100  0.278100  0.688630  0.132082
    H   H99   0.241000  0.290760  0.621050  0.142355
    H   H100  0.320700  0.241800  0.615310  0.112215
    H   H101  0.159180  0.247800  0.673000  0.083206
    H   H102  0.075300  0.290970  0.676890  0.110568
    H   H103  0.137540  0.428900  0.648460  0.121124
    H   H104  0.221470  0.385940  0.644770  0.106067
    H   H105  0.075020  0.446980  0.686160  0.108553
    H   H106  0.994090  0.495730  0.684780  0.133726
    H   H107  0.931780  0.382590  0.641740  0.122492
    H   H108  0.013370  0.334630  0.642790  0.124889
    H   H109  0.844230  0.604950  0.614070  0.147498
    H   H110  0.830540  0.614250  0.575610  0.091802
    H   H111  0.807970  0.449800  0.570340  0.105880
    H   H112  0.822290  0.440350  0.608790  0.129281
    H   H113  0.757180  0.588430  0.544410  0.116753
    H   H114  0.766260  0.600540  0.505710  0.122060
    H   H115  0.896890  0.498660  0.505580  0.126703
    H   H116  0.888010  0.486760  0.544160  0.119367
    H   H117  0.855550  0.641430  0.483930  0.140930
    H   H118  0.886260  0.653280  0.447240  0.105819
    H   H119  0.857580  0.492280  0.434470  0.119058
    H   H120  0.826440  0.480590  0.471090  0.101827
    H   H121  0.014180  0.912280  0.728580  -0.052811
    H   H122  0.191240  0.846820  0.717670  0.061852
    H   H123  0.895370  0.909720  0.723690  0.118811
    H   H124  0.868380  0.915660  0.801670  0.130819
    H   H125  0.127210  0.559670  0.765930  0.167183
    H   H126  0.007060  0.691100  0.794750  -0.008519
    H   H127  0.855780  0.647680  0.663360  0.160839
    H   H128  0.854540  0.578730  0.702950  0.145448
    H   H129  0.098940  0.924350  0.298500  0.150017
    H   H130  0.259410  0.821300  0.297550  0.182043
    H   H131  0.014640  0.001850  0.278080  0.009671
    H   H132  0.899090  0.869760  0.246810  0.176687
    H   H133  0.055020  0.697380  0.243630  -0.047050
    H   H134  0.187390  0.579150  0.272680  0.161088
    H   H135  0.898110  0.623370  0.345720  0.121881
    H   H136  0.918900  0.706040  0.379460  0.197782
    N   N1    0.840040  0.549370  0.651170  -0.904150
    N   N2    0.896860  0.509590  0.674970  -0.938553
    N   N3    0.889780  0.478610  0.640140  -0.815700
    N   N4    0.894160  0.618050  0.405020  -0.906952
    N   N5    0.958720  0.587920  0.382150  -0.725036
    N   N6    0.940540  0.542980  0.413590  -0.836821
    N   N7    0.774260  0.160500  0.893590  -0.815239
    N   N8    0.796250  0.137770  0.858760  -0.808231
    N   N9    0.846960  0.196980  0.877520  -0.852974
    N   N10   0.865860  0.092810  0.109100  -0.851375
    N   N11   0.894820  0.085680  0.144160  -0.803334
    N   N12   0.935020  0.143540  0.120690  -0.853835
    N   N13   0.408270  0.199990  0.627030  -0.871659
    N   N14   0.391210  0.159250  0.659510  -0.827772
    N   N15   0.452740  0.124300  0.636380  -0.904108
    N   N16   0.445680  0.243850  0.398240  -0.798294
    N   N17   0.433860  0.212300  0.363740  -0.930174
    N   N18   0.484680  0.165990  0.387870  -0.905077
    N   N19   0.442070  0.569190  0.889270  -0.852307
    N   N20   0.478940  0.633980  0.868070  -0.769353
    N   N21   0.512840  0.616200  0.901720  -0.811882
    N   N22   0.535640  0.603200  0.126370  -0.820896
    N   N23   0.508830  0.614940  0.161570  -0.916161
    N   N24   0.463000  0.559350  0.139110  -0.864730
    N   N25   0.195460  0.896590  0.762760  -0.531398
    N   N26   0.450720  0.736610  0.776240  -0.355041
    N   N27   0.342730  0.821480  0.330720  -0.429351
    N   N28   0.491070  0.767810  0.221970  -0.416986
    N   N29   0.385490  0.051140  0.232870  -0.469311
    N   N30   0.127730  0.175970  0.276730  -0.424078
    N   N31   0.344890  0.865110  0.232300  -0.542312
    N   N32   0.039470  0.863830  0.226100  -0.544505
    N   N33   0.967970  0.860230  0.804960  -0.641823
    N   N34   0.271510  0.851390  0.817660  -0.414199
    N   N35   0.163400  0.122730  0.689670  -0.365687
    N   N36   0.188010  0.139210  0.815090  -0.389636
    N   N37   0.134920  0.729350  0.731170  -0.614716
    N   N38   0.069600  0.026940  0.710650  -0.428965
    N   N39   0.814800  0.794620  0.792860  -0.404710
    N   N40   0.927140  0.038790  0.731320  -0.460001
    N   N41   0.081640  0.678110  0.839630  -0.431959
    N   N42   0.039410  0.556990  0.724620  -0.389453
    N   N43   0.174600  0.718240  0.296630  -0.654469
    N   N44   0.183480  0.027200  0.302490  -0.609719
    N   N45   0.896820  0.956690  0.204760  -0.335365
    N   N46   0.001090  0.927060  0.323080  -0.420142
    N   N47   0.099560  0.567020  0.313680  -0.330359
    N   N48   0.135160  0.698720  0.199980  -0.413941
    O   O1    0.913140  0.698140  0.317010  -0.678351
    O   O2    0.962880  0.731830  0.341370  -0.648816
    O   O3    0.059280  0.798740  0.310200  -0.482553
    O   O4    0.055920  0.834930  0.277050  -0.558975
    O   O5    0.946980  0.797750  0.273280  -0.681633
    O   O6    0.041710  0.671040  0.306060  -0.459765
    O   O7    0.011070  0.715930  0.279360  -0.623502
    O   O8    0.942360  0.834300  0.304780  -0.586128
    O   O9    0.859280  0.675210  0.715270  -0.617596
    O   O10   0.910100  0.708070  0.690980  -0.670819
    O   O11   0.993220  0.791370  0.720420  -0.504061
    O   O12   0.022380  0.788210  0.754680  -0.750511
    O   O13   0.949370  0.694340  0.762050  -0.685534
    O   O14   0.866990  0.812470  0.720140  -0.626882
    O   O15   0.896210  0.777740  0.749470  -0.703291
    O   O16   0.992400  0.671120  0.733390  -0.529716
    O   O17   0.951470  0.130310  0.812310  -0.615599
    O   O18   0.987410  0.086860  0.838310  -0.657840
    O   O19   0.048500  0.980250  0.811970  -0.508503
    O   O20   0.083240  0.972700  0.778710  -0.719128
    O   O21   0.042390  0.082980  0.768600  -0.606252
    O   O22   0.920280  0.999340  0.807690  -0.522141
    O   O23   0.965410  0.020870  0.779610  -0.644902
    O   O24   0.084440  0.095540  0.798540  -0.529161
    O   O25   0.040070  0.127930  0.191370  -0.645035
    O   O26   0.075070  0.064280  0.173470  -0.673363
    O   O27   0.131940  0.985630  0.214490  -0.500826
    O   O28   0.108080  0.972130  0.249110  -0.651078
    O   O29   0.026010  0.054280  0.243820  -0.664330
    O   O30   0.169340  0.107810  0.207260  -0.573631
    O   O31   0.120090  0.094490  0.234970  -0.632048
    O   O32   0.011340  0.003680  0.216320  -0.490160
    O   O33   0.444950  0.044420  0.323840  -0.630459
    O   O34   0.386680  0.017010  0.346440  -0.650240
    O   O35   0.295390  0.950930  0.312620  -0.398729
    O   O36   0.306990  0.908040  0.281160  -0.530290
    O   O37   0.417090  0.940170  0.281160  -0.611869
    O   O38   0.322940  0.077540  0.306120  -0.528667
    O   O39   0.355870  0.025420  0.282270  -0.630161
    O   O40   0.411030  0.908920  0.313630  -0.593322
    O   O41   0.387710  0.011660  0.700310  -0.657921
    O   O42   0.334090  0.986460  0.675690  -0.675399
    O   O43   0.221390  0.950650  0.705180  -0.708211
    O   O44   0.190250  0.983300  0.736450  -0.687071
    O   O45   0.288030  0.046050  0.741620  -0.725190
    O   O46   0.333850  0.889870  0.714020  -0.600105
    O   O47   0.310890  0.945650  0.738670  -0.713589
    O   O48   0.260940  0.067970  0.709900  -0.602955
    O   O49   0.313250  0.599940  0.827200  -0.635278
    O   O50   0.282780  0.655260  0.850510  -0.672732
    O   O51   0.203730  0.740100  0.819240  -0.594389
    O   O52   0.157890  0.726520  0.788690  -0.691000
    O   O53   0.202270  0.617430  0.787140  -0.666907
    O   O54   0.330010  0.726710  0.808550  -0.485248
    O   O55   0.279300  0.686730  0.786320  -0.773485
    O   O56   0.174030  0.619630  0.820010  -0.596303
    O   O57   0.350150  0.592670  0.206400  -0.654047
    O   O58   0.322020  0.653270  0.184940  -0.668168
    O   O59   0.255710  0.740840  0.220310  -0.522051
    O   O60   0.269450  0.759990  0.255390  -0.653128
    O   O61   0.349930  0.675920  0.256740  -0.698778
    O   O62   0.217990  0.617330  0.214840  -0.539981
    O   O63   0.257880  0.635880  0.244460  -0.706681
    O   O64   0.374170  0.720660  0.228660  -0.548465
