# Generated by REPEAT Assigner based on pymatgen
data_DB0-m2_o7_o15_f0_nbo.sym.37
_audit_creation_date              2022-05-24
_audit_creation_method            REPEAT_Assigner
_cell_length_a                    35.218316
_cell_length_b                    35.218279
_cell_length_c                    21.762090
_cell_angle_alpha                 90.000000
_cell_angle_beta                  90.000000
_cell_angle_gamma                 90.000000
_cell_volume                      26992.139945
_symmetry_space_group_name_H-M    P1
_symmetry_Int_Tables_number       1
loop_
    _symmetry_equiv_pos_site_id
    _symmetry_equiv_pos_as_xyz
    1  x,y,z
loop_
    _atom_site_type_symbol
    _atom_site_label
    _atom_site_fract_x
    _atom_site_fract_y
    _atom_site_fract_z
    _atom_type_partial_charge
    C   C1    0.072569  0.499560  0.498576  0.833512
    C   C2    0.500493  0.999435  0.381728  0.716282
    C   C3    0.990244  0.866998  0.051642  -0.112357
    C   C4    0.132739  0.010806  0.946847  -0.110036
    C   C5    0.989100  0.133966  0.947879  -0.111368
    C   C6    0.866082  0.989955  0.947823  -0.113678
    C   C7    0.009958  0.867310  0.946790  -0.111264
    C   C8    0.386836  0.499833  0.501109  0.001205
    C   C9    0.500412  0.613549  0.501294  0.001607
    C   C10   0.613832  0.499895  0.501355  0.001706
    C   C11   0.500477  0.386554  0.501171  0.001431
    C   C12   0.885869  0.000074  0.000120  0.008051
    C   C13   0.000724  0.499304  0.617066  0.704681
    C   C14   0.999183  0.114157  0.000168  0.004878
    C   C15   0.113091  0.000869  0.999361  0.000218
    C   C16   0.999985  0.886935  0.999312  0.002600
    C   C17   0.308211  0.499528  0.501052  0.336814
    C   C18   0.500700  0.692168  0.501195  0.327424
    C   C19   0.692445  0.499436  0.501222  0.330394
    C   C20   0.500629  0.307934  0.501092  0.334118
    C   C21   0.807147  0.999691  0.000309  0.349340
    C   C22   0.999236  0.192868  0.000250  0.352789
    C   C23   0.191803  0.000871  0.998844  0.352699
    C   C24   0.500712  0.000471  0.617063  0.708582
    C   C25   0.000424  0.808212  0.998903  0.347640
    C   C26   0.267455  0.499421  0.500974  -0.305358
    C   C27   0.500851  0.732922  0.501112  -0.295353
    C   C28   0.733196  0.499211  0.501136  -0.296933
    C   C29   0.500674  0.267180  0.501015  -0.302933
    C   C30   0.766343  0.999512  0.000367  -0.321720
    C   C31   0.999256  0.233666  0.000300  -0.322419
    C   C32   0.232603  0.000814  0.998519  -0.321080
    C   C33   0.000574  0.767407  0.998591  -0.319917
    C   C34   0.233274  0.499364  0.500827  -0.007086
    C   C35   0.500181  0.000416  0.882455  0.977561
    C   C36   0.500939  0.767102  0.500991  -0.020644
    C   C37   0.767376  0.499079  0.501016  -0.020226
    C   C38   0.500693  0.233000  0.500870  -0.008934
    C   C39   0.732135  0.999396  0.000379  -0.006782
    C   C40   0.999273  0.267872  0.000333  -0.007249
    C   C41   0.266810  0.000747  0.998197  -0.006464
    C   C42   0.000644  0.733197  0.998250  -0.006794
    C   C43   0.173076  0.531931  0.515290  -0.225176
    C   C44   0.533260  0.827320  0.516996  -0.231949
    C   C45   0.827587  0.466735  0.517026  -0.230219
    C   C46   0.000591  0.499835  0.882457  0.973295
    C   C47   0.468099  0.172814  0.515331  -0.224782
    C   C48   0.827470  0.531359  0.484294  -0.236249
    C   C49   0.468636  0.827194  0.484271  -0.235677
    C   C50   0.173157  0.466809  0.485249  -0.226403
    C   C51   0.533223  0.172877  0.485300  -0.226175
    C   C52   0.671899  0.033144  0.003303  -0.264433
    C   C53   0.033159  0.328041  0.003300  -0.264334
    C   C54   0.326893  0.966673  0.999248  -0.258116
    C   C55   0.966703  0.673052  0.999239  -0.258654
    C   C56   0.327179  0.034384  0.996286  -0.247949
    C   C57   0.498947  0.999032  0.116422  0.996714
    C   C58   0.965522  0.328145  0.997388  -0.266945
    C   C59   0.671916  0.965508  0.997411  -0.267780
    C   C60   0.034414  0.672879  0.996303  -0.249694
    C   C61   0.133970  0.532083  0.514609  -0.028418
    C   C62   0.533327  0.866437  0.516671  -0.036046
    C   C63   0.866704  0.466664  0.516700  -0.035201
    C   C64   0.467935  0.133707  0.514643  -0.028254
    C   C65   0.866571  0.531465  0.484064  -0.021933
    C   C66   0.468525  0.866297  0.484045  -0.022440
    C   C67   0.134045  0.466788  0.484669  0.004763
    C   C68   0.999204  0.501024  0.116427  0.993502
    C   C69   0.533233  0.133767  0.484709  0.003672
    C   C70   0.632773  0.033206  0.003402  0.022664
    C   C71   0.033290  0.367169  0.003396  0.022128
    C   C72   0.366017  0.966438  0.999200  0.006428
    C   C73   0.966531  0.633930  0.999184  0.008019
    C   C74   0.366317  0.034296  0.996196  -0.000480
    C   C75   0.965509  0.367279  0.997388  -0.000491
    C   C76   0.632779  0.965423  0.997412  -0.000133
    C   C77   0.034391  0.633737  0.996201  0.001703
    C   C78   0.114217  0.499500  0.499148  -0.070143
    C   C79   0.051527  0.546425  0.302866  -0.084133
    C   C80   0.500913  0.886160  0.500210  -0.047518
    C   C81   0.886428  0.499076  0.500230  -0.050276
    C   C82   0.500512  0.113949  0.499171  -0.068801
    C   C83   0.613007  0.999303  0.000602  0.264436
    C   C84   0.999422  0.386993  0.000586  0.264888
    C   C85   0.385933  0.000279  0.997618  0.277555
    C   C86   0.000403  0.614068  0.997627  0.274626
    C   C87   0.192627  0.499351  0.500519  0.201369
    C   C88   0.500953  0.807748  0.500771  0.220644
    C   C89   0.808020  0.499045  0.500792  0.220137
    C   C90   0.546982  0.946929  0.301030  -0.150509
    C   C91   0.500685  0.192355  0.500563  0.201593
    C   C92   0.691444  0.999335  0.000396  0.261650
    C   C93   0.999312  0.308559  0.000374  0.261593
    C   C94   0.307499  0.000607  0.997842  0.247185
    C   C95   0.000601  0.692504  0.997866  0.248594
    C   C96   0.500328  0.571934  0.501304  0.660698
    C   C97   0.572219  0.500040  0.501360  0.659816
    C   C98   0.500389  0.428167  0.501192  0.659612
    C   C99   0.428452  0.499980  0.501136  0.659516
    C   C100  0.999243  0.072492  0.000059  0.651197
    C   C101  0.947175  0.452955  0.301079  -0.153152
    C   C102  0.071430  0.000787  0.999551  0.653959
    C   C103  0.999769  0.928599  0.999489  0.654025
    C   C104  0.927536  0.000264  0.999998  0.650128
    C   C105  0.899358  0.402275  0.285262  0.713860
    C   C106  0.864238  0.406324  0.247665  -0.520289
    C   C107  0.399140  0.095768  0.291902  0.715033
    C   C108  0.399802  0.131126  0.254331  -0.495007
    C   C109  0.095980  0.600839  0.291846  0.715973
    C   C110  0.131333  0.600192  0.254256  -0.493785
    C   C111  0.597643  0.899096  0.285194  0.714842
    C   C112  0.500821  0.927816  0.499981  0.834545
    C   C113  0.453542  0.051303  0.302897  -0.085289
    C   C114  0.593566  0.863980  0.247592  -0.521176
    C   C115  0.102232  0.403241  0.712675  0.705353
    C   C116  0.137322  0.407928  0.750149  -0.508279
    C   C117  0.596852  0.101949  0.712576  0.702307
    C   C118  0.592232  0.137039  0.750068  -0.504932
    C   C119  0.900529  0.596659  0.711886  0.709986
    C   C120  0.865555  0.593098  0.749977  -0.511114
    C   C121  0.403401  0.900277  0.711959  0.711065
    C   C122  0.406980  0.865310  0.750063  -0.512901
    C   C123  0.625001  0.059824  0.812308  0.739943
    C   C124  0.948153  0.545553  0.697400  -0.122228
    C   C125  0.662138  0.056096  0.779937  -0.463330
    C   C126  0.060097  0.375070  0.812398  0.738797
    C   C127  0.056445  0.337925  0.780034  -0.464063
    C   C128  0.374919  0.943420  0.810081  0.743097
    C   C129  0.338190  0.947987  0.776816  -0.466081
    C   C130  0.943637  0.625128  0.810046  0.744074
    C   C131  0.948239  0.661856  0.776786  -0.467630
    C   C132  0.371042  0.051321  0.195778  0.737921
    C   C133  0.335688  0.042860  0.230872  -0.484735
    C   C134  0.941968  0.375249  0.185068  0.749279
    C   C135  0.454503  0.947900  0.697449  -0.121338
    C   C136  0.945884  0.337984  0.216979  -0.462375
    C   C137  0.624697  0.941719  0.185042  0.751696
    C   C138  0.661963  0.945600  0.216964  -0.464960
    C   C139  0.051491  0.628926  0.195755  0.736054
    C   C140  0.043023  0.664275  0.230860  -0.483918
    C   C141  0.078571  0.528581  0.345516  0.527000
    C   C142  0.092345  0.489264  0.332988  -0.375098
    C   C143  0.530744  0.921401  0.347335  0.606013
    C   C144  0.491913  0.905520  0.337988  -0.449023
    C   C145  0.921643  0.469187  0.347383  0.608263
    C   C146  0.053709  0.453314  0.697485  -0.128261
    C   C147  0.905739  0.508003  0.338011  -0.448952
    C   C148  0.471394  0.078339  0.345552  0.527814
    C   C149  0.510713  0.092110  0.333028  -0.374540
    C   C150  0.922244  0.528250  0.652675  0.584847
    C   C151  0.907660  0.489034  0.663412  -0.433281
    C   C152  0.471812  0.921984  0.652737  0.586039
    C   C153  0.511040  0.907427  0.663464  -0.436217
    C   C154  0.079120  0.470273  0.651729  0.588597
    C   C155  0.094141  0.509398  0.661676  -0.424959
    C   C156  0.529767  0.078873  0.651684  0.585498
    C   C157  0.546723  0.053469  0.697448  -0.123678
    C   C158  0.490653  0.093929  0.661641  -0.423119
    C   C159  0.415920  0.014934  0.839871  0.623198
    C   C160  0.428222  0.054879  0.827972  -0.386463
    C   C161  0.015127  0.584106  0.839906  0.623859
    C   C162  0.055077  0.571837  0.827985  -0.386467
    C   C163  0.584848  0.987737  0.841486  0.608585
    C   C164  0.573509  0.947573  0.829031  -0.380327
    C   C165  0.987953  0.415155  0.841468  0.610196
    C   C166  0.947784  0.426492  0.829046  -0.381958
    C   C167  0.583794  0.013945  0.158397  0.609971
    C   C168  0.433627  0.983106  0.805817  -0.194141
    C   C169  0.570897  0.053651  0.170901  -0.365108
    C   C170  0.984552  0.583889  0.157418  0.673283
    C   C171  0.944282  0.571289  0.165862  -0.593067
    C   C172  0.416074  0.984394  0.157377  0.674020
    C   C173  0.428645  0.944116  0.165804  -0.596969
    C   C174  0.014157  0.416197  0.158364  0.609727
    C   C175  0.053864  0.429099  0.170853  -0.367400
    C   C176  0.308149  0.527018  0.606717  0.717059
    C   C177  0.279679  0.558365  0.602652  -0.491289
    C   C178  0.527905  0.692062  0.607048  0.716357
    C   C179  0.983311  0.566404  0.805818  -0.195809
    C   C180  0.559438  0.720336  0.603198  -0.494149
    C   C181  0.692294  0.472146  0.607018  0.715608
    C   C182  0.720490  0.440547  0.603080  -0.491677
    C   C183  0.473054  0.307916  0.606698  0.717093
    C   C184  0.441649  0.279514  0.602556  -0.492899
    C   C185  0.692463  0.526806  0.395476  0.714702
    C   C186  0.720945  0.558150  0.399371  -0.487726
    C   C187  0.473385  0.692146  0.395414  0.713861
    C   C188  0.441973  0.720552  0.399291  -0.486761
    C   C189  0.308425  0.472001  0.395410  0.715753
    C   C190  0.566970  0.019202  0.806866  -0.197325
    C   C191  0.280198  0.440438  0.399471  -0.485626
    C   C192  0.528218  0.308108  0.395487  0.714711
    C   C193  0.559719  0.279812  0.399577  -0.484966
    C   C194  0.807234  0.022469  0.108870  0.729365
    C   C195  0.778579  0.053750  0.108596  -0.502636
    C   C196  0.022136  0.192726  0.108724  0.730115
    C   C197  0.053633  0.221142  0.108291  -0.501744
    C   C198  0.191946  0.978326  0.107559  0.731502
    C   C199  0.220388  0.946852  0.107236  -0.504875
    C   C200  0.978009  0.808014  0.107705  0.727982
    C   C201  0.019419  0.433059  0.806882  -0.196060
    C   C202  0.946758  0.779327  0.107550  -0.504234
    C   C203  0.191404  0.023405  0.890130  0.729485
    C   C204  0.219958  0.054772  0.890072  -0.500088
    C   C205  0.976364  0.192828  0.891746  0.729007
    C   C206  0.944937  0.221317  0.892167  -0.496855
    C   C207  0.807259  0.976957  0.891739  0.728498
    C   C208  0.778979  0.945339  0.892091  -0.495001
    C   C209  0.022826  0.808683  0.890124  0.729437
    C   C210  0.054385  0.780340  0.890004  -0.501165
    C   C211  0.566283  0.981651  0.191532  -0.180667
    C   C212  0.928081  0.499166  0.499994  0.837457
    C   C213  0.015603  0.567688  0.195119  -0.209974
    C   C214  0.432282  0.015428  0.195108  -0.209334
    C   C215  0.981866  0.433686  0.191538  -0.178027
    C   C216  0.062611  0.579119  0.272155  -0.150664
    C   C217  0.577654  0.933896  0.267204  -0.156676
    C   C218  0.934147  0.422278  0.267257  -0.154341
    C   C219  0.420849  0.062398  0.272197  -0.149194
    C   C220  0.935357  0.576803  0.730094  -0.154826
    C   C221  0.423252  0.935112  0.730148  -0.154662
    C   C222  0.067132  0.422612  0.730837  -0.157615
    C   C223  0.500440  0.072303  0.498585  0.832949
    C   C224  0.577447  0.066876  0.730769  -0.159503
    C   C225  0.410812  0.954812  0.781129  -0.081637
    C   C226  0.955030  0.589229  0.781108  -0.079678
    C   C227  0.589615  0.047712  0.782441  -0.069827
    C   C228  0.047960  0.410436  0.782495  -0.070899
    C   C229  0.589357  0.953337  0.215495  -0.083938
    C   C230  0.042341  0.591560  0.221751  -0.080846
    C   C231  0.408408  0.042153  0.221769  -0.082087
    C   C232  0.953574  0.410593  0.215521  -0.084999
    C   C233  0.011862  0.531409  0.218890  0.206635
    C   C234  0.571415  0.999352  0.000458  0.503699
    C   C235  0.530867  0.986729  0.217727  0.173330
    C   C236  0.986934  0.469099  0.217738  0.170744
    C   C237  0.468559  0.011669  0.218889  0.205811
    C   C238  0.988552  0.530745  0.780470  0.172714
    C   C239  0.469288  0.988340  0.780476  0.174975
    C   C240  0.013605  0.468445  0.780870  0.168095
    C   C241  0.531582  0.013398  0.780859  0.172980
    C   C242  0.474826  0.978823  0.719850  0.150931
    C   C243  0.979061  0.525217  0.719829  0.151557
    C   C244  0.526374  0.022594  0.719964  0.155558
    C   C245  0.999514  0.428585  0.000430  0.501872
    C   C246  0.022819  0.473654  0.719981  0.159035
    C   C247  0.526080  0.977498  0.278683  0.184634
    C   C248  0.021373  0.525502  0.279412  0.092342
    C   C249  0.474463  0.021156  0.279420  0.093376
    C   C250  0.977725  0.473875  0.278706  0.186028
    C   C251  0.999198  0.500576  0.184771  -0.442722
    C   C252  0.499394  0.999015  0.184766  -0.445493
    C   C253  0.000981  0.499651  0.814143  -0.399696
    C   C254  0.500371  0.000797  0.814140  -0.405226
    C   C255  0.500704  0.000605  0.685792  -0.288679
    C   C256  0.427528  0.000068  0.998110  0.484777
    C   C257  0.000841  0.499325  0.685793  -0.287653
    C   C258  0.500401  0.999291  0.313085  -0.270635
    C   C259  0.999524  0.499558  0.313091  -0.270201
    C   C260  0.327885  0.512807  0.551862  -0.212724
    C   C261  0.513709  0.672412  0.552101  -0.207519
    C   C262  0.672669  0.486436  0.552113  -0.208071
    C   C263  0.487352  0.327628  0.551882  -0.211267
    C   C264  0.672751  0.512696  0.450420  -0.207790
    C   C265  0.487514  0.672452  0.450364  -0.205805
    C   C266  0.328018  0.486385  0.450281  -0.211214
    C   C267  0.000232  0.572472  0.998137  0.485794
    C   C268  0.513842  0.327719  0.450348  -0.209743
    C   C269  0.826912  0.010792  0.052405  -0.224482
    C   C270  0.010277  0.173074  0.052341  -0.227580
    C   C271  0.172160  0.989993  0.051192  -0.229577
    C   C272  0.989484  0.827827  0.051254  -0.221858
    C   C273  0.171899  0.011776  0.946776  -0.225630
    C   C274  0.988157  0.173128  0.948122  -0.227479
    C   C275  0.826925  0.988790  0.948122  -0.224425
    C   C276  0.011150  0.828155  0.946775  -0.223238
    C   C277  0.367026  0.511910  0.552259  -0.113655
    C   C278  0.999684  0.499474  0.381733  0.714894
    C   C279  0.512528  0.633279  0.552506  -0.115267
    C   C280  0.633541  0.487705  0.552540  -0.115387
    C   C281  0.488328  0.366765  0.552296  -0.114354
    C   C282  0.633612  0.511876  0.450120  -0.117394
    C   C283  0.488417  0.633314  0.450048  -0.118080
    C   C284  0.367150  0.487579  0.449943  -0.115647
    C   C285  0.512720  0.366851  0.450018  -0.116103
    C   C286  0.866084  0.009991  0.052521  -0.113316
    C   C287  0.009262  0.133911  0.052517  -0.110028
    C   C288  0.132998  0.990969  0.051641  -0.106580
    Cu  Cu1   0.000419  0.462119  0.499302  0.973822
    Cu  Cu2   0.500293  0.500027  0.561225  0.984522
    Cu  Cu3   0.999418  0.000638  0.939765  0.989656
    Cu  Cu4   0.999554  0.000452  0.059785  0.989625
    Cu  Cu5   0.463367  0.999970  0.499451  0.961114
    Cu  Cu6   0.000232  0.536627  0.499431  0.960146
    Cu  Cu7   0.537873  0.000149  0.499274  0.975083
    Cu  Cu8   0.499289  0.962660  0.998833  0.963807
    Cu  Cu9   0.962832  0.500712  0.998838  0.963069
    Cu  Cu10  0.499650  0.036727  0.000004  0.963707
    Cu  Cu11  0.036899  0.500347  0.000005  0.962120
    Cu  Cu12  0.500379  0.500072  0.441270  0.980837
    H   H1    0.381922  0.521934  0.592503  0.153560
    H   H2    0.017491  0.118945  0.093745  0.152751
    H   H3    0.481553  0.912741  0.291395  0.087126
    H   H4    0.472112  0.917357  0.372477  0.121689
    H   H5    0.493018  0.874188  0.342592  0.126178
    H   H6    0.912926  0.518338  0.291390  0.086561
    H   H7    0.917595  0.527826  0.372450  0.121694
    H   H8    0.874411  0.506891  0.342675  0.126249
    H   H9    0.513339  0.099374  0.283625  0.098328
    H   H10   0.531947  0.070148  0.345098  0.109969
    H   H11   0.516191  0.117941  0.360608  0.094887
    H   H12   0.916219  0.479027  0.709653  0.084385
    H   H13   0.118150  0.982875  0.093055  0.151900
    H   H14   0.919169  0.469424  0.628335  0.127918
    H   H15   0.876221  0.489295  0.660708  0.121155
    H   H16   0.521056  0.916008  0.709691  0.084951
    H   H17   0.530637  0.918931  0.628361  0.129125
    H   H18   0.510801  0.875986  0.660788  0.121742
    H   H19   0.086144  0.519598  0.708064  0.081935
    H   H20   0.082396  0.528982  0.626773  0.125443
    H   H21   0.125537  0.508882  0.658085  0.118434
    H   H22   0.480465  0.085980  0.708058  0.081601
    H   H23   0.471043  0.082171  0.626786  0.125066
    H   H24   0.982108  0.881824  0.093053  0.153599
    H   H25   0.491189  0.125323  0.657980  0.117945
    H   H26   0.430124  0.059809  0.777749  0.101476
    H   H27   0.455749  0.061306  0.849935  0.107411
    H   H28   0.406660  0.074425  0.847406  0.115645
    H   H29   0.059996  0.569966  0.777757  0.101441
    H   H30   0.061513  0.544302  0.849916  0.107391
    H   H31   0.074609  0.593405  0.847442  0.115773
    H   H32   0.572485  0.942680  0.778729  0.103581
    H   H33   0.545765  0.940608  0.849813  0.106015
    H   H34   0.595144  0.928444  0.849299  0.111628
    H   H35   0.117686  0.018917  0.905640  0.152855
    H   H36   0.942892  0.427612  0.778750  0.104165
    H   H37   0.940799  0.454189  0.849969  0.106533
    H   H38   0.928665  0.404808  0.849202  0.111772
    H   H39   0.567838  0.058053  0.221127  0.087293
    H   H40   0.543822  0.060081  0.147544  0.104580
    H   H41   0.592675  0.073591  0.153251  0.113248
    H   H42   0.941023  0.551846  0.205409  0.144626
    H   H43   0.933882  0.557338  0.123499  0.178819
    H   H44   0.926497  0.596673  0.174763  0.163922
    H   H45   0.448077  0.940836  0.205359  0.145530
    H   H46   0.980861  0.119047  0.906611  0.153246
    H   H47   0.442600  0.933717  0.123442  0.179579
    H   H48   0.403244  0.926344  0.174677  0.164927
    H   H49   0.058279  0.432147  0.221079  0.087804
    H   H50   0.060284  0.456179  0.147503  0.104856
    H   H51   0.073801  0.407327  0.153179  0.114011
    H   H52   0.278078  0.569456  0.555049  0.111470
    H   H53   0.288507  0.581814  0.633495  0.146436
    H   H54   0.251442  0.547764  0.617311  0.140233
    H   H55   0.570673  0.721864  0.555677  0.111755
    H   H56   0.582744  0.711365  0.634217  0.147392
    H   H57   0.881018  0.981843  0.906502  0.153205
    H   H58   0.548969  0.748638  0.617769  0.141455
    H   H59   0.721987  0.429354  0.555529  0.111162
    H   H60   0.711465  0.417232  0.634040  0.146882
    H   H61   0.748816  0.450936  0.617673  0.140837
    H   H62   0.430597  0.277935  0.554926  0.111947
    H   H63   0.418192  0.288391  0.633344  0.146938
    H   H64   0.452179  0.251257  0.617240  0.140813
    H   H65   0.722624  0.569274  0.446949  0.110491
    H   H66   0.712074  0.581578  0.368520  0.145446
    H   H67   0.749153  0.547528  0.384616  0.139551
    H   H68   0.017943  0.882380  0.905533  0.152881
    H   H69   0.430820  0.722190  0.446856  0.110133
    H   H70   0.418581  0.711633  0.368402  0.145533
    H   H71   0.452536  0.748791  0.384571  0.139222
    H   H72   0.278637  0.429366  0.447091  0.109790
    H   H73   0.289239  0.417039  0.368688  0.145281
    H   H74   0.251898  0.450817  0.384727  0.138930
    H   H75   0.570762  0.278219  0.447212  0.109776
    H   H76   0.583154  0.288807  0.368831  0.144773
    H   H77   0.549287  0.251537  0.384805  0.139054
    H   H78   0.776821  0.066935  0.062427  0.115520
    H   H79   0.188442  0.557433  0.527336  0.143415
    H   H80   0.787332  0.075807  0.142072  0.147494
    H   H81   0.750434  0.042346  0.122092  0.144694
    H   H82   0.066765  0.222769  0.062068  0.115242
    H   H83   0.075672  0.212240  0.141695  0.146970
    H   H84   0.042471  0.249385  0.121784  0.144702
    H   H85   0.221901  0.933547  0.061133  0.116414
    H   H86   0.211594  0.924933  0.140920  0.147617
    H   H87   0.248658  0.958079  0.120444  0.144983
    H   H88   0.933399  0.777671  0.061501  0.115992
    H   H89   0.924819  0.787980  0.141298  0.148031
    H   H90   0.558600  0.811964  0.529945  0.144964
    H   H91   0.958228  0.751160  0.120776  0.144779
    H   H92   0.221754  0.068061  0.936159  0.114254
    H   H93   0.211060  0.076722  0.856512  0.147431
    H   H94   0.248117  0.043434  0.876504  0.142481
    H   H95   0.931767  0.222919  0.938365  0.113845
    H   H96   0.922910  0.212498  0.858680  0.145523
    H   H97   0.956180  0.249551  0.878781  0.142643
    H   H98   0.777465  0.932113  0.938256  0.113001
    H   H99   0.787941  0.923402  0.858549  0.145136
    H   H100  0.750671  0.956408  0.878736  0.142229
    H   H101  0.812231  0.441396  0.529979  0.144222
    H   H102  0.067723  0.778628  0.936063  0.114490
    H   H103  0.076250  0.789385  0.856400  0.147523
    H   H104  0.043224  0.752108  0.876452  0.142939
    H   H105  0.522364  0.618319  0.592809  0.153826
    H   H106  0.442600  0.188184  0.527377  0.143131
    H   H107  0.812027  0.556683  0.471543  0.144778
    H   H108  0.443313  0.811748  0.471521  0.144518
    H   H109  0.188583  0.441262  0.473655  0.141010
    H   H110  0.558776  0.188296  0.473716  0.141009
    H   H111  0.687286  0.059661  0.005525  0.132940
    H   H112  0.059648  0.312606  0.005513  0.133201
    H   H113  0.311400  0.940193  0.000461  0.132878
    H   H114  0.940198  0.688501  0.000447  0.132924
    H   H115  0.311901  0.060993  0.995284  0.133562
    H   H116  0.618565  0.477881  0.592837  0.153783
    H   H117  0.938986  0.312796  0.995074  0.135518
    H   H118  0.687313  0.939000  0.995120  0.135568
    H   H119  0.060997  0.688200  0.995318  0.133620
    H   H120  0.119205  0.557986  0.526267  0.115863
    H   H121  0.558996  0.881232  0.529518  0.118665
    H   H122  0.881500  0.440996  0.529552  0.118284
    H   H123  0.442030  0.118945  0.526295  0.116061
    H   H124  0.881249  0.557166  0.471039  0.115481
    H   H125  0.442821  0.880971  0.471023  0.115573
    H   H126  0.119327  0.440942  0.472531  0.104973
    H   H127  0.478312  0.381677  0.592531  0.153820
    H   H128  0.559076  0.119042  0.472577  0.105138
    H   H129  0.617932  0.060024  0.005429  0.093587
    H   H130  0.060131  0.381969  0.005432  0.093438
    H   H131  0.380757  0.939541  0.000234  0.094726
    H   H132  0.939654  0.619153  0.000189  0.093916
    H   H133  0.381292  0.061065  0.995428  0.092437
    H   H134  0.938724  0.382172  0.995210  0.103868
    H   H135  0.617928  0.938614  0.995236  0.104029
    H   H136  0.061181  0.618800  0.995414  0.092070
    H   H137  0.869657  0.425987  0.208840  0.113086
    H   H138  0.618699  0.521852  0.409861  0.154788
    H   H139  0.841145  0.417940  0.276757  0.157404
    H   H140  0.855717  0.378143  0.229591  0.156193
    H   H141  0.418648  0.127071  0.214034  0.108293
    H   H142  0.410696  0.154897  0.282715  0.151232
    H   H143  0.370634  0.137786  0.238447  0.149884
    H   H144  0.127271  0.581346  0.213960  0.107920
    H   H145  0.155114  0.589303  0.282621  0.150674
    H   H146  0.137984  0.629362  0.238368  0.149631
    H   H147  0.573909  0.869409  0.208762  0.113527
    H   H148  0.581935  0.840896  0.276683  0.157545
    H   H149  0.478490  0.618386  0.409769  0.154938
    H   H150  0.621742  0.855442  0.229527  0.156295
    H   H151  0.131577  0.427482  0.788996  0.111361
    H   H152  0.160157  0.419979  0.720994  0.153853
    H   H153  0.146385  0.379910  0.768185  0.154057
    H   H154  0.572676  0.131321  0.788926  0.110631
    H   H155  0.580212  0.159901  0.720938  0.153411
    H   H156  0.620270  0.146046  0.768086  0.153187
    H   H157  0.871092  0.573858  0.789308  0.111253
    H   H158  0.842307  0.581216  0.721495  0.155522
    H   H159  0.857173  0.621490  0.767339  0.153733
    H   H160  0.382145  0.477658  0.409726  0.154073
    H   H161  0.426215  0.870861  0.789394  0.111888
    H   H162  0.418872  0.842065  0.721588  0.155666
    H   H163  0.378592  0.856908  0.767419  0.154486
    H   H164  0.657786  0.042917  0.734202  0.109912
    H   H165  0.681302  0.037823  0.807513  0.152889
    H   H166  0.675152  0.084558  0.774373  0.130013
    H   H167  0.043258  0.342249  0.734300  0.110297
    H   H168  0.038204  0.318734  0.807613  0.153385
    H   H169  0.084932  0.324964  0.774469  0.129973
    H   H170  0.343275  0.961140  0.731258  0.110226
    H   H171  0.522690  0.381832  0.409819  0.154215
    H   H172  0.319166  0.966631  0.803999  0.155602
    H   H173  0.324623  0.919816  0.770787  0.129499
    H   H174  0.961414  0.656761  0.731248  0.110466
    H   H175  0.966880  0.680873  0.803986  0.155554
    H   H176  0.920076  0.675437  0.770722  0.130117
    H   H177  0.343018  0.029071  0.275120  0.111585
    H   H178  0.317552  0.023418  0.203566  0.158408
    H   H179  0.320054  0.069634  0.239744  0.140451
    H   H180  0.958859  0.342220  0.262895  0.110653
    H   H181  0.964426  0.319124  0.189320  0.153296
    H   H182  0.881028  0.018258  0.093749  0.153429
    H   H183  0.917512  0.324702  0.222083  0.126801
    H   H184  0.657733  0.958562  0.262891  0.111226
    H   H185  0.680837  0.964136  0.189322  0.154271
    H   H186  0.675223  0.917218  0.222045  0.126821
    H   H187  0.029231  0.656932  0.275100  0.111413
    H   H188  0.023582  0.682412  0.203557  0.158797
    H   H189  0.069794  0.679913  0.239748  0.139938
    H   H190  0.099623  0.486648  0.283589  0.098653
    H   H191  0.070377  0.468030  0.345024  0.109776
    H   H192  0.118166  0.483780  0.360588  0.095209
    O   O1    0.054741  0.467946  0.483839  -0.624774
    O   O2    0.968415  0.446451  0.982633  -0.590643
    O   O3    0.445601  0.031365  0.981857  -0.587955
    O   O4    0.031536  0.554402  0.981893  -0.587789
    O   O5    0.445083  0.968631  0.015129  -0.580007
    O   O6    0.030741  0.446352  0.017894  -0.591916
    O   O7    0.553640  0.030569  0.017930  -0.593846
    O   O8    0.968802  0.554913  0.015165  -0.578789
    O   O9    0.990977  0.467830  0.411267  -0.589438
    O   O10   0.468981  0.008673  0.411212  -0.583996
    O   O11   0.008926  0.530992  0.411193  -0.583714
    O   O12   0.469168  0.945534  0.485148  -0.619994
    O   O13   0.532140  0.990712  0.411242  -0.590444
    O   O14   0.009800  0.467795  0.587373  -0.587898
    O   O15   0.532220  0.009530  0.587350  -0.589951
    O   O16   0.991545  0.530864  0.587659  -0.583773
    O   O17   0.469149  0.991277  0.587674  -0.585280
    O   O18   0.489205  0.969079  0.911080  -0.640033
    O   O19   0.969256  0.510813  0.911090  -0.639352
    O   O20   0.510853  0.031395  0.912404  -0.637636
    O   O21   0.031572  0.489165  0.912399  -0.635963
    O   O22   0.509449  0.967879  0.086792  -0.650481
    O   O23   0.945795  0.530818  0.485143  -0.620482
    O   O24   0.030577  0.511565  0.087427  -0.639478
    O   O25   0.488410  0.030408  0.087420  -0.640744
    O   O26   0.968047  0.490533  0.086794  -0.650578
    O   O27   0.489739  0.554103  0.450700  -0.589963
    O   O28   0.554408  0.510700  0.450779  -0.589650
    O   O29   0.511012  0.446036  0.450646  -0.589496
    O   O30   0.446340  0.489427  0.450568  -0.589062
    O   O31   0.510895  0.554072  0.551889  -0.591229
    O   O32   0.446255  0.510619  0.551737  -0.590812
    O   O33   0.489709  0.445987  0.551754  -0.591066
    O   O34   0.532047  0.054472  0.483821  -0.625274
    O   O35   0.554341  0.489433  0.551906  -0.590605
    O   O36   0.988769  0.054660  0.949395  -0.586644
    O   O37   0.053464  0.011284  0.949025  -0.586837
    O   O38   0.010094  0.946590  0.948896  -0.587284
    O   O39   0.945394  0.989959  0.949268  -0.586156
    O   O40   0.009817  0.054578  0.050592  -0.586616
    O   O41   0.945430  0.010736  0.050608  -0.586540
    O   O42   0.989274  0.946353  0.050217  -0.587658
    O   O43   0.053654  0.990193  0.050203  -0.586926
    O   O44   0.899164  0.381919  0.330598  -0.500259
    O   O45   0.946068  0.467645  0.514736  -0.624265
    O   O46   0.380205  0.094574  0.338785  -0.504540
    O   O47   0.094785  0.619779  0.338723  -0.504766
    O   O48   0.618018  0.898892  0.330509  -0.500338
    O   O49   0.102742  0.382983  0.667232  -0.498417
    O   O50   0.617074  0.102437  0.667088  -0.497711
    O   O51   0.900200  0.616531  0.665996  -0.499188
    O   O52   0.383521  0.899937  0.666077  -0.499422
    O   O53   0.624212  0.071891  0.864816  -0.538163
    O   O54   0.072134  0.375883  0.864922  -0.537662
    O   O55   0.374975  0.931167  0.862480  -0.536223
    O   O56   0.532348  0.945799  0.514706  -0.624369
    O   O57   0.931369  0.625081  0.862437  -0.536256
    O   O58   0.368812  0.065448  0.144736  -0.530932
    O   O59   0.930254  0.376190  0.132377  -0.542750
    O   O60   0.623753  0.930022  0.132341  -0.543553
    O   O61   0.065596  0.631162  0.144698  -0.530346
    O   O62   0.093317  0.547016  0.386422  -0.409109
    O   O63   0.549899  0.910584  0.390540  -0.428933
    O   O64   0.910841  0.450034  0.390602  -0.429914
    O   O65   0.452963  0.093085  0.386462  -0.409443
    O   O66   0.909987  0.546809  0.609820  -0.425899
    O   O67   0.054701  0.531082  0.513673  -0.618693
    O   O68   0.453255  0.909711  0.609890  -0.426458
    O   O69   0.090583  0.451489  0.608552  -0.422647
    O   O70   0.548551  0.090312  0.608492  -0.421099
    O   O71   0.386257  0.010362  0.867455  -0.521321
    O   O72   0.010535  0.613752  0.867525  -0.521442
    O   O73   0.614059  0.992898  0.870037  -0.511378
    O   O74   0.993123  0.385928  0.869971  -0.511947
    O   O75   0.613784  0.009961  0.131496  -0.520978
    O   O76   0.989979  0.612111  0.126551  -0.515005
    O   O77   0.387857  0.989842  0.126510  -0.514584
    O   O78   0.468921  0.054438  0.513703  -0.619662
    O   O79   0.010174  0.386213  0.131447  -0.520311
    O   O80   0.317957  0.515780  0.657268  -0.518120
    O   O81   0.516463  0.682340  0.657523  -0.517931
    O   O82   0.682614  0.483573  0.657522  -0.517937
    O   O83   0.484274  0.317691  0.657276  -0.518284
    O   O84   0.682626  0.515488  0.344987  -0.517813
    O   O85   0.484756  0.682355  0.344932  -0.517866
    O   O86   0.318175  0.483291  0.344859  -0.518009
    O   O87   0.516982  0.317898  0.344925  -0.517574
    O   O88   0.817188  0.009063  0.157941  -0.521376
    O   O89   0.553555  0.968247  0.982657  -0.591880
    O   O90   0.008693  0.182926  0.157849  -0.521359
    O   O91   0.182206  0.991884  0.156633  -0.521944
    O   O92   0.991534  0.817911  0.156721  -0.521643
    O   O93   0.181334  0.009918  0.841178  -0.521928
    O   O94   0.989826  0.183037  0.842629  -0.520837
    O   O95   0.816907  0.990576  0.842662  -0.521106
    O   O96   0.009183  0.818608  0.841208  -0.521773
