# Generated by REPEAT Assigner based on pymatgen
data_DB0-m2_o24_o28_f0_nbo.sym.120
_audit_creation_date              2022-05-24
_audit_creation_method            REPEAT_Assigner
_cell_length_a                    21.283334
_cell_length_b                    21.283334
_cell_length_c                    46.790847
_cell_angle_alpha                 90.000000
_cell_angle_beta                  90.000000
_cell_angle_gamma                 90.000000
_cell_volume                      21195.332779
_symmetry_space_group_name_H-M    P1
_symmetry_Int_Tables_number       1
loop_
    _symmetry_equiv_pos_site_id
    _symmetry_equiv_pos_as_xyz
    1  x,y,z
loop_
    _atom_site_type_symbol
    _atom_site_label
    _atom_site_fract_x
    _atom_site_fract_y
    _atom_site_fract_z
    _atom_type_partial_charge
    O   O1    0.089473  0.017651  0.469793  -0.461324
    O   O2    0.982349  0.089473  0.469793  -0.461308
    O   O3    0.910527  0.982349  0.469793  -0.461317
    O   O4    0.017651  0.910527  0.469793  -0.461345
    O   O5    0.589473  0.517651  0.969793  -0.461459
    O   O6    0.482349  0.589473  0.969793  -0.461432
    O   O7    0.410527  0.482349  0.969793  -0.461423
    O   O8    0.517651  0.410527  0.969793  -0.461430
    O   O9    0.089750  0.983734  0.517013  -0.626299
    O   O10   0.016266  0.089749  0.517013  -0.626278
    O   O11   0.910251  0.016266  0.517013  -0.626289
    O   O12   0.983734  0.910250  0.517013  -0.626295
    O   O13   0.589749  0.483734  0.017013  -0.626286
    O   O14   0.516266  0.589750  0.017013  -0.626270
    O   O15   0.410250  0.516266  0.017013  -0.626225
    O   O16   0.483734  0.410251  0.017013  -0.626252
    C   C1    0.119000  0.001176  0.493420  0.559747
    C   C2    0.998824  0.119000  0.493420  0.559722
    C   C3    0.881000  0.998824  0.493420  0.559677
    C   C4    0.001176  0.881000  0.493420  0.559831
    C   C5    0.619000  0.501176  0.993420  0.559914
    C   C6    0.498824  0.619000  0.993420  0.559799
    C   C7    0.381000  0.498824  0.993420  0.559693
    C   C8    0.501176  0.381000  0.993420  0.559800
    C   C9    0.000000  0.500000  0.643441  0.212221
    C   C10   0.500000  0.000000  0.643441  0.212209
    C   C11   0.500000  0.000000  0.143441  0.212194
    C   C12   0.000000  0.500000  0.143441  0.212199
    C   C13   0.527430  0.951113  0.366500  -0.194530
    C   C14   0.048887  0.527430  0.366500  -0.194575
    C   C15   0.472570  0.048887  0.366500  -0.194397
    C   C16   0.951113  0.472570  0.366500  -0.194586
    C   C17   0.027430  0.451113  0.866500  -0.194428
    C   C18   0.548887  0.027430  0.866500  -0.194404
    C   C19   0.972569  0.548887  0.866500  -0.194395
    C   C20   0.451113  0.972570  0.866500  -0.194412
    H   H1    0.550257  0.913085  0.355246  0.148631
    H   H2    0.086915  0.550257  0.355246  0.148634
    H   H3    0.449743  0.086915  0.355246  0.148574
    H   H4    0.913085  0.449743  0.355246  0.148639
    H   H5    0.050257  0.413085  0.855246  0.148577
    H   H6    0.586915  0.050257  0.855246  0.148567
    H   H7    0.949743  0.586915  0.855246  0.148572
    H   H8    0.413085  0.949743  0.855246  0.148569
    Cu  Cu1   0.000000  0.000000  0.465452  0.785522
    Cu  Cu2   0.500000  0.500000  0.965452  0.785270
    Cu  Cu3   0.000000  0.000000  0.521338  0.998687
    Cu  Cu4   0.500000  0.500000  0.021338  0.998938
    C   C21   0.500000  0.000000  0.410762  -0.138453
    C   C22   0.000000  0.500000  0.410762  -0.138530
    C   C23   0.000000  0.500000  0.910762  -0.138434
    C   C24   0.500000  0.000000  0.910762  -0.138443
    C   C25   0.500000  0.000000  0.351549  0.218341
    C   C26   0.000000  0.500000  0.351549  0.218486
    C   C27   0.000000  0.500000  0.851549  0.218265
    C   C28   0.500000  0.000000  0.851549  0.218257
    C   C29   0.055087  0.228270  0.499711  -0.016914
    C   C30   0.771730  0.055087  0.499711  -0.016910
    C   C31   0.944913  0.771730  0.499711  -0.016980
    C   C32   0.228270  0.944913  0.499711  -0.017006
    C   C33   0.555087  0.728270  0.999711  -0.016971
    C   C34   0.271730  0.555087  0.999711  -0.016901
    C   C35   0.444913  0.271730  0.999711  -0.017049
    C   C36   0.728270  0.444913  0.999711  -0.017136
    C   C37   0.016564  0.267695  0.520301  -0.097844
    C   C38   0.732305  0.016564  0.520301  -0.097838
    C   C39   0.983436  0.732305  0.520301  -0.097635
    C   C40   0.267695  0.983436  0.520301  -0.097788
    C   C41   0.516564  0.767695  0.020301  -0.097796
    C   C42   0.232305  0.516564  0.020301  -0.097826
    C   C43   0.483436  0.232305  0.020301  -0.097593
    C   C44   0.767695  0.483436  0.020301  -0.097535
    H   H9    0.033036  0.283751  0.541532  0.045010
    H   H10   0.716249  0.033036  0.541532  0.044999
    H   H11   0.966964  0.716249  0.541532  0.044953
    H   H12   0.283751  0.966964  0.541532  0.044993
    H   H13   0.533036  0.783751  0.041532  0.044988
    H   H14   0.216249  0.533036  0.041532  0.044992
    H   H15   0.466964  0.216249  0.041532  0.044944
    H   H16   0.783751  0.466964  0.041532  0.044933
    H   H17   0.102673  0.209777  0.504290  0.041026
    H   H18   0.790223  0.102673  0.504290  0.041024
    H   H19   0.897327  0.790223  0.504290  0.041032
    H   H20   0.209777  0.897327  0.504290  0.041064
    H   H21   0.602673  0.709777  0.004290  0.041040
    H   H22   0.290223  0.602673  0.004290  0.041007
    H   H23   0.397327  0.290223  0.004290  0.041029
    H   H24   0.709777  0.397327  0.004290  0.041066
    C   C45   0.998417  0.309784  0.495800  0.302262
    C   C46   0.690216  0.998417  0.495800  0.302268
    C   C47   0.001583  0.690216  0.495800  0.302263
    C   C48   0.309784  0.001583  0.495800  0.302226
    C   C49   0.498417  0.809784  0.995800  0.301974
    C   C50   0.190216  0.498417  0.995800  0.301998
    C   C51   0.501583  0.190216  0.995800  0.301952
    C   C52   0.809784  0.501583  0.995800  0.301904
    C   C53   0.037033  0.271529  0.475151  -0.160934
    C   C54   0.728471  0.037033  0.475151  -0.160955
    C   C55   0.962967  0.728471  0.475151  -0.160871
    C   C56   0.271529  0.962967  0.475151  -0.160898
    C   C57   0.537033  0.771529  0.975151  -0.160641
    C   C58   0.228471  0.537033  0.975151  -0.160668
    C   C59   0.462967  0.228471  0.975151  -0.160521
    C   C60   0.771529  0.462967  0.975151  -0.160476
    C   C61   0.979271  0.231561  0.469298  0.210430
    C   C62   0.768439  0.979270  0.469298  0.210356
    C   C63   0.020730  0.768439  0.469298  0.210298
    C   C64   0.231561  0.020729  0.469298  0.210369
    C   C65   0.479270  0.731561  0.969298  0.209610
    C   C66   0.268439  0.479271  0.969298  0.209612
    C   C67   0.520729  0.268439  0.969298  0.209413
    C   C68   0.731561  0.520730  0.969298  0.209410
    C   C69   0.940527  0.271227  0.489696  -0.267174
    C   C70   0.728773  0.940527  0.489696  -0.267134
    C   C71   0.059473  0.728773  0.489696  -0.267160
    C   C72   0.271227  0.059473  0.489696  -0.267140
    C   C73   0.440527  0.771227  0.989696  -0.267411
    C   C74   0.228773  0.440527  0.989696  -0.267428
    C   C75   0.559473  0.228773  0.989696  -0.267445
    C   C76   0.771227  0.559473  0.989696  -0.267411
    C   C77   0.958871  0.227676  0.514250  0.000499
    C   C78   0.772324  0.958871  0.514250  0.000463
    C   C79   0.041129  0.772323  0.514250  0.000252
    C   C80   0.227676  0.041128  0.514250  0.000460
    C   C81   0.458871  0.727677  0.014250  0.000725
    C   C82   0.272324  0.458871  0.014250  0.000737
    C   C83   0.541129  0.272324  0.014250  0.000484
    C   C84   0.727676  0.541129  0.014250  0.000467
    C   C85   0.997576  0.188964  0.493635  0.080741
    C   C86   0.811036  0.997576  0.493635  0.080814
    C   C87   0.002424  0.811036  0.493635  0.080746
    C   C88   0.188964  0.002424  0.493635  0.080812
    C   C89   0.497576  0.688964  0.993635  0.080905
    C   C90   0.311036  0.497576  0.993635  0.080903
    C   C91   0.502424  0.311036  0.993635  0.080955
    C   C92   0.688964  0.502424  0.993635  0.080935
    H   H25   0.070392  0.293373  0.459922  0.059960
    H   H26   0.706627  0.070392  0.459922  0.059968
    H   H27   0.929608  0.706627  0.459922  0.059940
    H   H28   0.293373  0.929608  0.459922  0.059958
    H   H29   0.570392  0.793373  0.959922  0.059924
    H   H30   0.206627  0.570392  0.959922  0.059930
    H   H31   0.429608  0.206627  0.959922  0.059908
    H   H32   0.793373  0.429608  0.959922  0.059898
    H   H33   0.893714  0.292522  0.486096  0.112441
    H   H34   0.707478  0.893714  0.486096  0.112429
    H   H35   0.106286  0.707478  0.486096  0.112478
    H   H36   0.292522  0.106286  0.486096  0.112430
    H   H37   0.393714  0.792522  0.986096  0.112586
    H   H38   0.207478  0.393714  0.986096  0.112595
    H   H39   0.606286  0.207478  0.986096  0.112644
    H   H40   0.792522  0.606286  0.986096  0.112634
    H   H41   0.926345  0.208089  0.530474  0.034059
    H   H42   0.791911  0.926345  0.530474  0.034064
    H   H43   0.073655  0.791911  0.530474  0.034140
    H   H44   0.208089  0.073655  0.530474  0.034059
    H   H45   0.426345  0.708089  0.030474  0.034013
    H   H46   0.291911  0.426345  0.030474  0.034014
    H   H47   0.573655  0.291911  0.030474  0.034105
    H   H48   0.708089  0.573655  0.030474  0.034101
    C   C93   0.526330  0.950523  0.395950  0.003957
    C   C94   0.049477  0.526330  0.395950  0.004001
    C   C95   0.473670  0.049477  0.395950  0.003889
    C   C96   0.950523  0.473670  0.395950  0.004016
    C   C97   0.026330  0.450523  0.895950  0.003919
    C   C98   0.549477  0.026330  0.895950  0.003922
    C   C99   0.973670  0.549477  0.895950  0.003899
    C   C100  0.450523  0.973670  0.895950  0.003928
    H   H49   0.547911  0.911894  0.407282  0.091473
    H   H50   0.088106  0.547911  0.407282  0.091464
    H   H51   0.452089  0.088106  0.407282  0.091490
    H   H52   0.911894  0.452089  0.407282  0.091460
    H   H53   0.047911  0.411894  0.907282  0.091497
    H   H54   0.588106  0.047911  0.907282  0.091496
    H   H55   0.952089  0.588106  0.907282  0.091495
    H   H56   0.411894  0.952089  0.907282  0.091494
    O   O17   0.946177  0.504143  0.538382  -0.488354
    O   O18   0.495857  0.946177  0.538382  -0.488343
    O   O19   0.053823  0.495857  0.538382  -0.488295
    O   O20   0.504143  0.053823  0.538382  -0.488349
    O   O21   0.446177  0.004143  0.038382  -0.488209
    O   O22   0.995857  0.446177  0.038382  -0.488205
    O   O23   0.553823  0.995857  0.038382  -0.488229
    O   O24   0.004143  0.553823  0.038382  -0.488197
    C   C101  0.000000  0.500000  0.552008  0.614759
    C   C102  0.500000  0.000000  0.552008  0.614789
    C   C103  0.500000  0.000000  0.052008  0.614434
    C   C104  0.000000  0.500000  0.052008  0.614426
    O   O25   0.945405  0.409229  0.498364  -0.594491
    O   O26   0.590771  0.945405  0.498364  -0.594485
    O   O27   0.054595  0.590771  0.498364  -0.594461
    O   O28   0.409229  0.054595  0.498364  -0.594478
    O   O29   0.445405  0.909229  0.998364  -0.594490
    O   O30   0.090771  0.445405  0.998364  -0.594500
    O   O31   0.554595  0.090771  0.998364  -0.594501
    O   O32   0.909229  0.554595  0.998364  -0.594488
    O   O33   0.053662  0.408028  0.497465  -0.617444
    O   O34   0.591972  0.053661  0.497465  -0.617486
    O   O35   0.946338  0.591972  0.497465  -0.617505
    O   O36   0.408028  0.946338  0.497465  -0.617474
    O   O37   0.553661  0.908028  0.997465  -0.617515
    O   O38   0.091972  0.553662  0.997465  -0.617510
    O   O39   0.446338  0.091972  0.997465  -0.617526
    O   O40   0.908028  0.446339  0.997465  -0.617546
    C   C105  0.999171  0.379502  0.496550  0.545090
    C   C106  0.620498  0.999171  0.496550  0.545116
    C   C107  0.000829  0.620498  0.496550  0.545105
    C   C108  0.379502  0.000829  0.496550  0.545099
    C   C109  0.499171  0.879502  0.996550  0.545396
    C   C110  0.120498  0.499171  0.996550  0.545411
    C   C111  0.500829  0.120498  0.996550  0.545422
    C   C112  0.879502  0.500829  0.996550  0.545427
    Cu  Cu5   0.937394  0.500575  0.496870  0.982598
    Cu  Cu6   0.499425  0.937394  0.496870  0.982585
    Cu  Cu7   0.062606  0.499425  0.496870  0.982664
    Cu  Cu8   0.500575  0.062606  0.496870  0.982520
    Cu  Cu9   0.437394  0.000575  0.996870  0.982668
    Cu  Cu10  0.999425  0.437394  0.996870  0.982628
    Cu  Cu11  0.562606  0.999425  0.996870  0.982542
    Cu  Cu12  0.000575  0.562606  0.996870  0.982602
    O   O41   0.945832  0.501987  0.455316  -0.610922
    O   O42   0.498013  0.945832  0.455316  -0.610923
    O   O43   0.054168  0.498013  0.455316  -0.610880
    O   O44   0.501987  0.054168  0.455316  -0.610915
    O   O45   0.445832  0.001987  0.955316  -0.610876
    O   O46   0.998013  0.445832  0.955316  -0.610898
    O   O47   0.554168  0.998013  0.955316  -0.610902
    O   O48   0.001987  0.554168  0.955316  -0.610887
    C   C113  0.000000  0.500000  0.441984  0.717027
    C   C114  0.500000  0.000000  0.441984  0.717012
    C   C115  0.500000  0.000000  0.941984  0.716943
    C   C116  0.000000  0.500000  0.941984  0.716952
    C   C117  0.522002  0.050494  0.306576  0.463396
    C   C118  0.949506  0.522002  0.306576  0.463559
    C   C119  0.477998  0.949506  0.306576  0.463462
    C   C120  0.050494  0.477998  0.306576  0.463569
    C   C121  0.022001  0.550494  0.806576  0.463417
    C   C122  0.449506  0.022001  0.806576  0.463395
    C   C123  0.977998  0.449506  0.806576  0.463453
    C   C124  0.550494  0.977998  0.806576  0.463409
    N   N1    0.500000  0.000000  0.320962  -0.170457
    N   N2    0.000000  0.500000  0.320962  -0.170625
    N   N3    0.000000  0.500000  0.820962  -0.170390
    N   N4    0.500000  0.000000  0.820962  -0.170390
    C   C125  0.479034  0.948325  0.277035  -0.129588
    C   C126  0.051675  0.479034  0.277035  -0.129670
    C   C127  0.520966  0.051675  0.277035  -0.129516
    C   C128  0.948325  0.520966  0.277035  -0.129659
    C   C129  0.979034  0.448325  0.777035  -0.129525
    C   C130  0.551675  0.979034  0.777035  -0.129547
    C   C131  0.020966  0.551675  0.777035  -0.129510
    C   C132  0.448325  0.020966  0.777035  -0.129540
    C   C133  0.500000  0.000000  0.262222  0.122053
    C   C134  0.000000  0.500000  0.262222  0.122236
    C   C135  0.000000  0.500000  0.762222  0.122102
    C   C136  0.500000  0.000000  0.762222  0.122063
    C   C137  0.458799  0.895945  0.262199  -0.068800
    C   C138  0.104055  0.458799  0.262199  -0.068851
    C   C139  0.541201  0.104055  0.262199  -0.068826
    C   C140  0.895945  0.541201  0.262199  -0.068758
    C   C141  0.958799  0.395945  0.762199  -0.068875
    C   C142  0.604055  0.958799  0.762199  -0.068916
    C   C143  0.041201  0.604055  0.762199  -0.068867
    C   C144  0.395945  0.041201  0.762199  -0.068833
    C   C145  0.960286  0.395366  0.732765  -0.017382
    C   C146  0.604634  0.960286  0.732765  -0.017396
    C   C147  0.039714  0.604634  0.732765  -0.017398
    C   C148  0.395366  0.039714  0.732765  -0.017486
    C   C149  0.460286  0.895366  0.232765  -0.017464
    C   C150  0.104634  0.460286  0.232765  -0.017389
    C   C151  0.539714  0.104634  0.232765  -0.017475
    C   C152  0.895366  0.539714  0.232765  -0.017498
    C   C153  0.980655  0.447691  0.717930  -0.127532
    C   C154  0.552309  0.980655  0.717930  -0.127682
    C   C155  0.019345  0.552309  0.717930  -0.127511
    C   C156  0.447691  0.019345  0.717930  -0.127799
    C   C157  0.480655  0.947691  0.217930  -0.127923
    C   C158  0.052309  0.480655  0.217930  -0.127640
    C   C159  0.519345  0.052309  0.217930  -0.127921
    C   C160  0.947691  0.519345  0.217930  -0.127744
    C   C161  0.000000  0.500000  0.732742  0.087435
    C   C162  0.500000  0.000000  0.732742  0.087642
    C   C163  0.500000  0.000000  0.232742  0.087829
    C   C164  0.000000  0.500000  0.232742  0.087554
    C   C165  0.982223  0.447864  0.688390  0.428592
    C   C166  0.552136  0.982223  0.688390  0.428642
    C   C167  0.017777  0.552136  0.688390  0.428549
    C   C168  0.447864  0.017777  0.688390  0.428790
    C   C169  0.482223  0.947864  0.188390  0.428948
    C   C170  0.052136  0.482223  0.188390  0.428675
    C   C171  0.517777  0.052136  0.188390  0.428918
    C   C172  0.947864  0.517777  0.188390  0.428813
    N   N5    0.000000  0.500000  0.674014  -0.059111
    N   N6    0.500000  0.000000  0.674014  -0.059261
    N   N7    0.500000  0.000000  0.174014  -0.059457
    N   N8    0.000000  0.500000  0.174014  -0.059272
    O   O49   0.546479  0.099333  0.320982  -0.492274
    O   O50   0.900667  0.546479  0.320982  -0.492284
    O   O51   0.453521  0.900667  0.320982  -0.492284
    O   O52   0.099333  0.453521  0.320982  -0.492273
    O   O53   0.046479  0.599333  0.820982  -0.492264
    O   O54   0.400667  0.046479  0.820982  -0.492293
    O   O55   0.953521  0.400667  0.820982  -0.492270
    O   O56   0.599333  0.953521  0.820982  -0.492293
    H   H57   0.442229  0.854585  0.273257  0.130604
    H   H58   0.145415  0.442229  0.273257  0.130619
    H   H59   0.557771  0.145415  0.273257  0.130614
    H   H60   0.854585  0.557771  0.273257  0.130598
    H   H61   0.942229  0.354585  0.773257  0.130633
    H   H62   0.645415  0.942229  0.773257  0.130642
    H   H63   0.057771  0.645415  0.773257  0.130632
    H   H64   0.354585  0.057771  0.773257  0.130618
    H   H65   0.944643  0.353648  0.721707  0.118398
    H   H66   0.646352  0.944643  0.721707  0.118401
    H   H67   0.055357  0.646352  0.721707  0.118400
    H   H68   0.353648  0.055357  0.721707  0.118445
    H   H69   0.444643  0.853648  0.221707  0.118446
    H   H70   0.146352  0.444643  0.221707  0.118406
    H   H71   0.555357  0.146352  0.221707  0.118449
    H   H72   0.853648  0.555357  0.221707  0.118453
    O   O57   0.967382  0.395301  0.673971  -0.497821
    O   O58   0.604699  0.967382  0.673971  -0.497844
    O   O59   0.032618  0.604699  0.673971  -0.497800
    O   O60   0.395301  0.032618  0.673971  -0.497881
    O   O61   0.467382  0.895301  0.173971  -0.497881
    O   O62   0.104699  0.467382  0.173971  -0.497821
    O   O63   0.532618  0.104699  0.173971  -0.497857
    O   O64   0.895301  0.532618  0.173971  -0.497852
    C   C173  0.053071  0.517127  0.628521  -0.286792
    C   C174  0.482873  0.053071  0.628521  -0.286794
    C   C175  0.946928  0.482873  0.628521  -0.286856
    C   C176  0.517127  0.946928  0.628521  -0.286814
    C   C177  0.553071  0.017127  0.128521  -0.286710
    C   C178  0.982873  0.553072  0.128521  -0.286748
    C   C179  0.446928  0.982873  0.128521  -0.286732
    C   C180  0.017127  0.446929  0.128521  -0.286771
    H   H73   0.095259  0.530479  0.639853  0.133886
    H   H74   0.469521  0.095259  0.639853  0.133885
    H   H75   0.904741  0.469521  0.639853  0.133910
    H   H76   0.530479  0.904741  0.639853  0.133897
    H   H77   0.595259  0.030479  0.139853  0.133868
    H   H78   0.969521  0.595259  0.139853  0.133876
    H   H79   0.404741  0.969521  0.139853  0.133880
    H   H80   0.030479  0.404741  0.139853  0.133884
    C   C181  0.052945  0.519183  0.599091  0.229013
    C   C182  0.480817  0.052945  0.599091  0.229092
    C   C183  0.947055  0.480817  0.599091  0.229176
    C   C184  0.519183  0.947055  0.599091  0.229102
    C   C185  0.552945  0.019183  0.099091  0.228880
    C   C186  0.980817  0.552945  0.099091  0.228928
    C   C187  0.447055  0.980817  0.099091  0.228885
    C   C188  0.019183  0.447055  0.099091  0.228935
    C   C189  0.000000  0.500000  0.583748  -0.300933
    C   C190  0.500000  0.000000  0.583748  -0.300961
    C   C191  0.500000  0.000000  0.083748  -0.300638
    C   C192  0.000000  0.500000  0.083748  -0.300676
    C   C193  0.109438  0.543804  0.585270  0.052377
    C   C194  0.111858  0.605285  0.575631  0.256527
    C   C195  0.057491  0.648396  0.579964  -0.405927
    C   C196  0.165547  0.627099  0.562340  -0.262002
    C   C197  0.216766  0.588135  0.559073  -0.107535
    C   C198  0.214800  0.527461  0.569287  -0.154815
    C   C199  0.161311  0.505438  0.582487  -0.163609
    H   H81   0.015868  0.630433  0.568341  0.108020
    H   H82   0.068932  0.695868  0.571763  0.111549
    H   H83   0.046645  0.652127  0.603085  0.126008
    H   H84   0.168003  0.674799  0.554487  0.133857
    H   H85   0.258713  0.605371  0.548678  0.115547
    H   H86   0.255154  0.497090  0.566878  0.121281
    H   H87   0.159653  0.457695  0.590324  0.097071
    C   C200  0.456196  0.109438  0.585270  0.052244
    C   C201  0.394715  0.111858  0.575631  0.256570
    C   C202  0.351604  0.057491  0.579964  -0.405944
    C   C203  0.372901  0.165547  0.562340  -0.262013
    C   C204  0.411865  0.216766  0.559073  -0.107506
    C   C205  0.472539  0.214800  0.569287  -0.154847
    C   C206  0.494562  0.161311  0.582487  -0.163524
    H   H88   0.369567  0.015868  0.568341  0.108022
    H   H89   0.304132  0.068932  0.571763  0.111551
    H   H90   0.347873  0.046645  0.603085  0.126016
    H   H91   0.325201  0.168003  0.554487  0.133854
    H   H92   0.394629  0.258713  0.548678  0.115542
    H   H93   0.502910  0.255153  0.566878  0.121284
    H   H94   0.542305  0.159652  0.590324  0.097050
    C   C207  0.890561  0.456196  0.585270  0.052026
    C   C208  0.888142  0.394715  0.575631  0.256766
    C   C209  0.942509  0.351604  0.579964  -0.405911
    C   C210  0.834453  0.372901  0.562340  -0.262133
    C   C211  0.783234  0.411865  0.559073  -0.107425
    C   C212  0.785200  0.472538  0.569287  -0.154937
    C   C213  0.838689  0.494562  0.582487  -0.163388
    H   H95   0.984132  0.369567  0.568341  0.107996
    H   H96   0.931068  0.304132  0.571763  0.111528
    H   H97   0.953355  0.347873  0.603085  0.126002
    H   H98   0.831998  0.325201  0.554487  0.133867
    H   H99   0.741287  0.394629  0.548678  0.115533
    H   H100  0.744846  0.502910  0.566878  0.121291
    H   H101  0.840347  0.542305  0.590324  0.097030
    C   C214  0.543804  0.890561  0.585270  0.052233
    C   C215  0.605285  0.888142  0.575631  0.256571
    C   C216  0.648396  0.942509  0.579964  -0.405931
    C   C217  0.627099  0.834453  0.562340  -0.262008
    C   C218  0.588135  0.783234  0.559073  -0.107496
    C   C219  0.527462  0.785200  0.569287  -0.154864
    C   C220  0.505438  0.838689  0.582487  -0.163508
    H   H102  0.630433  0.984132  0.568341  0.108019
    H   H103  0.695868  0.931068  0.571763  0.111548
    H   H104  0.652127  0.953355  0.603085  0.126012
    H   H105  0.674799  0.831997  0.554487  0.133850
    H   H106  0.605371  0.741286  0.548678  0.115539
    H   H107  0.497090  0.744846  0.566878  0.121284
    H   H108  0.457695  0.840348  0.590324  0.097050
    C   C221  0.609438  0.043804  0.085270  0.052375
    C   C222  0.611858  0.105285  0.075631  0.256577
    C   C223  0.557491  0.148396  0.079964  -0.405895
    C   C224  0.665547  0.127099  0.062340  -0.262067
    C   C225  0.716766  0.088135  0.059073  -0.107535
    C   C226  0.714800  0.027461  0.069287  -0.154811
    C   C227  0.661311  0.005438  0.082487  -0.163605
    H   H109  0.515868  0.130433  0.068341  0.108019
    H   H110  0.568933  0.195868  0.071763  0.111532
    H   H111  0.546645  0.152127  0.103085  0.125981
    H   H112  0.668002  0.174799  0.054487  0.133885
    H   H113  0.758713  0.105371  0.048678  0.115550
    H   H114  0.755154  0.997090  0.066878  0.121284
    H   H115  0.659653  0.957695  0.090324  0.097074
    C   C228  0.956196  0.609439  0.085270  0.052373
    C   C229  0.894715  0.611858  0.075631  0.256581
    C   C230  0.851604  0.557491  0.079964  -0.405898
    C   C231  0.872901  0.665547  0.062340  -0.262075
    C   C232  0.911865  0.716766  0.059073  -0.107535
    C   C233  0.972539  0.714800  0.069287  -0.154802
    C   C234  0.994562  0.661311  0.082487  -0.163607
    H   H116  0.869567  0.515868  0.068341  0.108022
    H   H117  0.804132  0.568932  0.071763  0.111534
    H   H118  0.847873  0.546645  0.103085  0.125976
    H   H119  0.825201  0.668003  0.054487  0.133886
    H   H120  0.894629  0.758714  0.048678  0.115547
    H   H121  0.002910  0.755154  0.066878  0.121278
    H   H122  0.042305  0.659652  0.090324  0.097073
    C   C235  0.390561  0.956196  0.085270  0.052378
    C   C236  0.388142  0.894715  0.075631  0.256588
    C   C237  0.442509  0.851604  0.079964  -0.405915
    C   C238  0.334453  0.872901  0.062340  -0.262063
    C   C239  0.283234  0.911865  0.059073  -0.107534
    C   C240  0.285200  0.972539  0.069287  -0.154825
    C   C241  0.338689  0.994562  0.082487  -0.163590
    H   H123  0.484132  0.869567  0.068341  0.108019
    H   H124  0.431068  0.804132  0.071763  0.111538
    H   H125  0.453355  0.847873  0.103085  0.125991
    H   H126  0.331998  0.825201  0.054487  0.133877
    H   H127  0.241287  0.894629  0.048678  0.115553
    H   H128  0.244846  0.002910  0.066878  0.121285
    H   H129  0.340347  0.042305  0.090324  0.097072
    C   C242  0.043804  0.390562  0.085270  0.052357
    C   C243  0.105285  0.388142  0.075631  0.256592
    C   C244  0.148396  0.442509  0.079964  -0.405914
    C   C245  0.127099  0.334453  0.062340  -0.262061
    C   C246  0.088135  0.283234  0.059073  -0.107534
    C   C247  0.027461  0.285200  0.069287  -0.154822
    C   C248  0.005438  0.338689  0.082487  -0.163603
    H   H130  0.130433  0.484132  0.068341  0.108027
    H   H131  0.195868  0.431068  0.071763  0.111532
    H   H132  0.152127  0.453355  0.103085  0.125989
    H   H133  0.174799  0.331997  0.054487  0.133876
    H   H134  0.105371  0.241287  0.048678  0.115551
    H   H135  0.997090  0.244846  0.066878  0.121286
    H   H136  0.957695  0.340347  0.090324  0.097073
    C   C249  0.960072  0.209201  0.440014  -0.140541
    C   C250  0.901960  0.181036  0.434729  0.319268
    C   C251  0.852979  0.174068  0.457342  -0.545112
    C   C252  0.888521  0.158228  0.407733  -0.276619
    C   C253  0.931824  0.162928  0.386038  -0.084033
    C   C254  0.989076  0.190486  0.391123  -0.124093
    C   C255  0.003133  0.213380  0.417875  -0.187540
    H   H137  0.832888  0.220512  0.462744  0.129305
    H   H138  0.872901  0.151505  0.476597  0.169175
    H   H139  0.814159  0.144051  0.449476  0.150609
    H   H140  0.843687  0.136553  0.403274  0.155256
    H   H141  0.920859  0.144830  0.365039  0.107265
    H   H142  0.023365  0.193778  0.374149  0.114687
    H   H143  0.049045  0.233417  0.421167  0.121079
    C   C256  0.790799  0.960072  0.440014  -0.140490
    C   C257  0.818964  0.901960  0.434729  0.319196
    C   C258  0.825932  0.852979  0.457342  -0.545030
    C   C259  0.841772  0.888520  0.407733  -0.276585
    C   C260  0.837072  0.931824  0.386038  -0.084019
    C   C261  0.809514  0.989075  0.391123  -0.124119
    C   C262  0.786620  0.003133  0.417875  -0.187531
    H   H144  0.779488  0.832888  0.462744  0.129296
    H   H145  0.848495  0.872901  0.476597  0.169150
    H   H146  0.855949  0.814158  0.449476  0.150585
    H   H147  0.863447  0.843687  0.403274  0.155234
    H   H148  0.855170  0.920859  0.365039  0.107264
    H   H149  0.806222  0.023365  0.374149  0.114690
    H   H150  0.766583  0.049045  0.421167  0.121079
    C   C263  0.039928  0.790799  0.440014  -0.140636
    C   C264  0.098040  0.818964  0.434729  0.319381
    C   C265  0.147021  0.825932  0.457342  -0.545110
    C   C266  0.111480  0.841772  0.407733  -0.276727
    C   C267  0.068176  0.837072  0.386038  -0.083940
    C   C268  0.010925  0.809514  0.391123  -0.124240
    C   C269  0.996867  0.786620  0.417875  -0.187363
    H   H151  0.167112  0.779487  0.462744  0.129297
    H   H152  0.127098  0.848494  0.476597  0.169143
    H   H153  0.185841  0.855949  0.449476  0.150620
    H   H154  0.156313  0.863446  0.403274  0.155282
    H   H155  0.079141  0.855170  0.365039  0.107255
    H   H156  0.976635  0.806222  0.374149  0.114703
    H   H157  0.950955  0.766583  0.421167  0.121088
    C   C270  0.209201  0.039928  0.440014  -0.140519
    C   C271  0.181036  0.098040  0.434729  0.319245
    C   C272  0.174068  0.147021  0.457342  -0.545071
    C   C273  0.158228  0.111479  0.407733  -0.276610
    C   C274  0.162928  0.068176  0.386038  -0.084035
    C   C275  0.190486  0.010924  0.391123  -0.124090
    C   C276  0.213380  0.996867  0.417875  -0.187540
    H   H158  0.220513  0.167112  0.462744  0.129295
    H   H159  0.151506  0.127098  0.476597  0.169157
    H   H160  0.144051  0.185841  0.449476  0.150602
    H   H161  0.136554  0.156313  0.403274  0.155253
    H   H162  0.144830  0.079141  0.365039  0.107266
    H   H163  0.193778  0.976635  0.374149  0.114684
    H   H164  0.233417  0.950955  0.421167  0.121071
    C   C277  0.460072  0.709201  0.940014  -0.139764
    C   C278  0.401960  0.681036  0.934729  0.318875
    C   C279  0.352979  0.674068  0.957342  -0.544646
    C   C280  0.388521  0.658228  0.907733  -0.276568
    C   C281  0.431824  0.662928  0.886038  -0.084017
    C   C282  0.489075  0.690486  0.891123  -0.124092
    C   C283  0.503133  0.713380  0.917875  -0.187766
    H   H165  0.332888  0.720513  0.962744  0.129198
    H   H166  0.372901  0.651506  0.976597  0.169086
    H   H167  0.314158  0.644051  0.949476  0.150488
    H   H168  0.343687  0.636554  0.903274  0.155253
    H   H169  0.420859  0.644830  0.865039  0.107258
    H   H170  0.523365  0.693778  0.874149  0.114680
    H   H171  0.549045  0.733417  0.921167  0.121154
    C   C284  0.290799  0.460072  0.940014  -0.139745
    C   C285  0.318964  0.401960  0.934729  0.318871
    C   C286  0.325932  0.352979  0.957342  -0.544668
    C   C287  0.341772  0.388521  0.907733  -0.276563
    C   C288  0.337072  0.431824  0.886038  -0.084027
    C   C289  0.309514  0.489076  0.891123  -0.124091
    C   C290  0.286620  0.503133  0.917875  -0.187779
    H   H172  0.279487  0.332888  0.962744  0.129203
    H   H173  0.348495  0.372901  0.976597  0.169093
    H   H174  0.355949  0.314159  0.949476  0.150499
    H   H175  0.363447  0.343687  0.903274  0.155255
    H   H176  0.355170  0.420859  0.865039  0.107259
    H   H177  0.306222  0.523365  0.874149  0.114688
    H   H178  0.266583  0.549045  0.921167  0.121163
    C   C291  0.539928  0.290799  0.940014  -0.139580
    C   C292  0.598040  0.318964  0.934729  0.318797
    C   C293  0.647021  0.325932  0.957342  -0.544587
    C   C294  0.611479  0.341772  0.907733  -0.276544
    C   C295  0.568176  0.337072  0.886038  -0.084031
    C   C296  0.510925  0.309514  0.891123  -0.124095
    C   C297  0.496867  0.286620  0.917875  -0.187832
    H   H179  0.667112  0.279487  0.962744  0.129187
    H   H180  0.627098  0.348495  0.976597  0.169041
    H   H181  0.685841  0.355949  0.949476  0.150498
    H   H182  0.656313  0.363447  0.903274  0.155249
    H   H183  0.579141  0.355170  0.865039  0.107263
    H   H184  0.476635  0.306222  0.874149  0.114687
    H   H185  0.450955  0.266583  0.921167  0.121175
    C   C298  0.709201  0.539928  0.940014  -0.139604
    C   C299  0.681036  0.598040  0.934729  0.318830
    C   C300  0.674068  0.647021  0.957342  -0.544596
    C   C301  0.658228  0.611480  0.907733  -0.276576
    C   C302  0.662928  0.568176  0.886038  -0.084025
    C   C303  0.690486  0.510925  0.891123  -0.124104
    C   C304  0.713380  0.496867  0.917875  -0.187808
    H   H186  0.720513  0.667112  0.962744  0.129191
    H   H187  0.651505  0.627098  0.976597  0.169038
    H   H188  0.644051  0.685841  0.949476  0.150493
    H   H189  0.636553  0.656313  0.903274  0.155264
    H   H190  0.644830  0.579141  0.865039  0.107261
    H   H191  0.693778  0.476635  0.874149  0.114687
    H   H192  0.733417  0.450955  0.921167  0.121168
