# Generated by REPEAT Assigner based on pymatgen
data_DB0-m3_o3_cdn_sqe
_audit_creation_date              2022-05-24
_audit_creation_method            REPEAT_Assigner
_cell_length_a                    21.161525
_cell_length_b                    21.146478
_cell_length_c                    125.507843
_cell_angle_alpha                 89.844633
_cell_angle_beta                  89.620895
_cell_angle_gamma                 90.035995
_cell_volume                      56162.273536
_symmetry_space_group_name_H-M    P1
_symmetry_Int_Tables_number       1
loop_
    _symmetry_equiv_pos_site_id
    _symmetry_equiv_pos_as_xyz
    1  x,y,z
loop_
    _atom_site_type_symbol
    _atom_site_label
    _atom_site_fract_x
    _atom_site_fract_y
    _atom_site_fract_z
    _atom_type_partial_charge
    C   C1    0.672118  0.723936  0.503118  0.727633
    C   C2    0.359284  0.411302  0.627917  0.596914
    C   C3    0.743766  0.351415  0.401537  -0.138859
    C   C4    0.707088  0.379739  0.393525  -0.018779
    C   C5    0.744301  0.408764  0.385568  -0.097628
    C   C6    0.811964  0.409431  0.385597  -0.152099
    C   C7    0.849222  0.381087  0.393612  0.013801
    C   C8    0.163538  0.214703  0.320068  -0.284993
    C   C9    0.184285  0.178162  0.328455  -0.138327
    C   C10   0.244347  0.151793  0.328231  0.049366
    C   C11   0.278902  0.155137  0.318801  -0.103995
    C   C12   0.256166  0.188483  0.310208  -0.128588
    C   C13   0.355315  0.683042  0.628541  0.629620
    C   C14   0.200275  0.221225  0.311055  0.078839
    C   C15   0.329037  0.093920  0.338029  -0.148541
    C   C16   0.369236  0.092336  0.346643  -0.191985
    C   C17   0.354477  0.125427  0.355764  0.074607
    C   C18   0.297266  0.156042  0.356497  -0.102479
    C   C19   0.258620  0.160337  0.347776  -0.205089
    C   C20   0.275539  0.131892  0.338229  0.049960
    C   C21   0.455061  0.175759  0.359652  -0.111603
    C   C22   0.487898  0.214809  0.366397  -0.220549
    C   C23   0.470729  0.218795  0.376984  0.030517
    C   C24   0.270237  0.539049  0.643468  0.615298
    C   C25   0.424489  0.179150  0.381011  -0.098683
    C   C26   0.389914  0.142005  0.374171  -0.189377
    C   C27   0.403317  0.142544  0.363392  0.089458
    C   C28   0.319649  0.299493  0.621482  -0.141537
    C   C29   0.319212  0.231783  0.621537  -0.144647
    C   C30   0.358443  0.194191  0.628076  0.053468
    C   C31   0.398148  0.231602  0.634539  -0.167713
    C   C32   0.398496  0.299326  0.634467  -0.132662
    C   C33   0.359292  0.336350  0.627937  0.020608
    C   C34   0.397417  0.080885  0.634608  -0.154631
    C   C35   0.320856  0.366105  0.289761  0.630064
    C   C36   0.396918  0.013173  0.634680  -0.173127
    C   C37   0.356869  0.975772  0.628306  0.053492
    C   C38   0.317381  0.013431  0.621851  -0.179280
    C   C39   0.317876  0.081139  0.621780  -0.135908
    C   C40   0.357918  0.118544  0.628155  0.038626
    C   C41   0.315494  0.862758  0.622114  -0.146066
    C   C42   0.315101  0.795038  0.622184  -0.129422
    C   C43   0.355351  0.757985  0.628523  -0.012216
    C   C44   0.396098  0.794799  0.634788  -0.114020
    C   C45   0.396594  0.862506  0.634732  -0.147242
    C   C46   0.189099  0.462024  0.275891  0.628133
    C   C47   0.356307  0.900129  0.628385  0.023581
    C   C48   0.166880  0.240191  0.716858  -0.144442
    C   C49   0.135143  0.271369  0.708849  -0.203441
    C   C50   0.158679  0.270794  0.698559  0.122278
    C   C51   0.211385  0.234714  0.696217  -0.119538
    C   C52   0.243757  0.204733  0.704237  -0.175842
    C   C53   0.223091  0.209569  0.714639  0.062469
    C   C54   0.135333  0.301272  0.680027  -0.254946
    C   C55   0.134888  0.347996  0.672367  -0.048466
    C   C56   0.136865  0.410878  0.675318  0.015467
    C   C57   0.187148  0.271139  0.303375  0.677349
    C   C58   0.131675  0.426496  0.685957  -0.237447
    C   C59   0.131365  0.379753  0.693615  -0.071704
    C   C60   0.136999  0.317051  0.690683  0.039390
    C   C61   0.138093  0.456487  0.657144  -0.194682
    C   C62   0.170838  0.488848  0.649307  -0.159207
    C   C63   0.225155  0.521677  0.651836  0.064202
    C   C64   0.242597  0.527499  0.662348  -0.172156
    C   C65   0.209153  0.496360  0.670190  -0.115223
    C   C66   0.158662  0.458097  0.667562  0.122054
    C   C67   0.937376  0.329756  0.282659  -0.136873
    C   C68   0.049049  0.367222  0.289511  0.616566
    C   C69   0.869680  0.329644  0.282676  -0.140803
    C   C70   0.831978  0.367052  0.289550  0.018263
    C   C71   0.869275  0.404553  0.296393  -0.137068
    C   C72   0.936956  0.404568  0.296361  -0.139501
    C   C73   0.974110  0.367200  0.289499  0.031802
    C   C74   0.718624  0.403161  0.296613  -0.192499
    C   C75   0.650936  0.403050  0.296648  -0.149542
    C   C76   0.613591  0.366713  0.289662  0.030190
    C   C77   0.651314  0.330516  0.282635  -0.152415
    C   C78   0.718999  0.330631  0.282599  -0.184710
    C   C79   0.348949  0.323609  0.739072  0.647326
    C   C80   0.756344  0.366952  0.289587  0.069598
    C   C81   0.500680  0.331588  0.282488  -0.198573
    C   C82   0.432996  0.331472  0.282528  -0.074389
    C   C83   0.395805  0.366231  0.289767  -0.026130
    C   C84   0.432517  0.401178  0.296975  -0.090183
    C   C85   0.500220  0.401364  0.296953  -0.174160
    C   C86   0.537954  0.366560  0.289702  0.074175
    C   C87   0.196581  0.502404  0.257566  -0.160530
    C   C88   0.223611  0.543164  0.250280  -0.151362
    C   C89   0.259824  0.593424  0.253706  0.141412
    C   C90   0.431422  0.189377  0.754801  0.609905
    C   C91   0.264281  0.605707  0.264469  -0.191153
    C   C92   0.235687  0.565922  0.271766  -0.165528
    C   C93   0.204158  0.512565  0.268331  0.050960
    C   C94   0.278337  0.643626  0.236206  -0.241821
    C   C95   0.319709  0.660951  0.228195  -0.101475
    C   C96   0.384096  0.659179  0.229909  0.098398
    C   C97   0.406513  0.645276  0.239940  -0.269216
    C   C98   0.365051  0.629557  0.248028  -0.001854
    C   C99   0.300998  0.626020  0.246059  0.013153
    C   C100  0.469065  0.611005  0.219371  -0.116313
    C   C101  0.266164  0.193437  0.723273  0.583663
    C   C102  0.498849  0.602483  0.209705  -0.153140
    C   C103  0.488523  0.644398  0.201468  -0.022967
    C   C104  0.451179  0.697042  0.203153  -0.099626
    C   C105  0.419753  0.704459  0.212728  -0.185356
    C   C106  0.427254  0.660449  0.220762  0.129058
    C   C107  0.391829  0.940066  0.733079  -0.141521
    C   C108  0.391950  0.872350  0.733086  -0.138738
    C   C109  0.349245  0.834733  0.739074  0.013729
    C   C110  0.306488  0.872099  0.745050  -0.137708
    C   C111  0.306479  0.939806  0.745032  -0.137884
    C   C112  0.806330  0.701033  0.523828  0.594854
    C   C113  0.348975  0.051801  0.739038  0.612880
    C   C114  0.349105  0.976865  0.739047  0.034144
    C   C115  0.307765  0.721471  0.745275  -0.182543
    C   C116  0.307746  0.653765  0.745280  -0.153839
    C   C117  0.349239  0.616337  0.739095  0.047340
    C   C118  0.390773  0.653965  0.732909  -0.147692
    C   C119  0.390788  0.721675  0.732903  -0.190514
    C   C120  0.349273  0.759097  0.739084  0.068982
    C   C121  0.390150  0.503297  0.732779  -0.156524
    C   C122  0.390027  0.435585  0.732783  -0.072382
    C   C123  0.349017  0.398550  0.739087  -0.053399
    C   C124  0.506622  0.626735  0.190637  0.714400
    C   C125  0.308101  0.435382  0.745399  -0.079984
    C   C126  0.308135  0.503099  0.745411  -0.167971
    C   C127  0.349179  0.540695  0.739096  0.059975
    C   C128  0.457142  0.187048  0.773804  -0.235588
    C   C129  0.490319  0.211213  0.782256  -0.121711
    C   C130  0.539873  0.252423  0.780464  0.133040
    C   C131  0.559514  0.265051  0.770175  -0.218850
    C   C132  0.527712  0.238999  0.761705  -0.133972
    C   C133  0.474723  0.202250  0.763518  0.071747
    C   C134  0.560296  0.355086  0.788739  -0.026520
    C   C135  0.651760  0.591134  0.170896  0.644316
    C   C136  0.567227  0.390904  0.797799  -0.284175
    C   C137  0.579304  0.361863  0.807420  0.125972
    C   C138  0.587375  0.297125  0.807843  -0.088562
    C   C139  0.578416  0.261152  0.798854  -0.242860
    C   C140  0.563411  0.289960  0.789334  0.014353
    C   C141  0.617486  0.389389  0.825312  -0.165540
    C   C142  0.606063  0.413863  0.835297  -0.124333
    C   C143  0.549725  0.444438  0.837436  0.015495
    C   C144  0.507155  0.454693  0.829343  -0.145019
    C   C145  0.519585  0.432014  0.819276  -0.104143
    C   C146  0.380013  0.589151  0.170081  0.700157
    C   C147  0.573689  0.397340  0.817338  0.078546
    C   C148  0.268266  0.641881  0.167300  -0.084658
    C   C149  0.200579  0.642132  0.167371  -0.173906
    C   C150  0.162896  0.589433  0.170252  0.065589
    C   C151  0.200228  0.536496  0.173041  -0.202821
    C   C152  0.267937  0.536370  0.172964  -0.071766
    C   C153  0.305055  0.589033  0.170089  -0.045531
    C   C154  0.049497  0.537365  0.173326  -0.164386
    C   C155  0.981805  0.537651  0.173422  -0.162157
    C   C156  0.944490  0.590319  0.170554  0.082877
    C   C157  0.521886  0.553400  0.150347  0.579899
    C   C158  0.982240  0.642662  0.167576  -0.169937
    C   C159  0.049929  0.642377  0.167480  -0.147270
    C   C160  0.087251  0.589719  0.170352  0.068365
    C   C161  0.831551  0.644046  0.168126  -0.142554
    C   C162  0.763846  0.644237  0.168221  -0.138245
    C   C163  0.726710  0.591180  0.170866  0.024382
    C   C164  0.763470  0.537860  0.173403  -0.112355
    C   C165  0.831154  0.537541  0.173312  -0.149385
    C   C166  0.868852  0.590646  0.170665  0.048936
    C   C167  0.452289  0.420031  0.059387  -0.168957
    C   C168  0.496384  0.326894  0.868850  0.700537
    C   C169  0.461400  0.425305  0.070184  -0.079887
    C   C170  0.521416  0.433979  0.074183  0.062572
    C   C171  0.572482  0.435704  0.067267  -0.131675
    C   C172  0.563420  0.429954  0.056447  -0.125984
    C   C173  0.503139  0.423044  0.052464  0.082699
    C   C174  0.569875  0.492345  0.089030  -0.103321
    C   C175  0.572593  0.507569  0.099675  -0.234305
    C   C176  0.535606  0.475482  0.107015  0.122892
    C   C177  0.497451  0.426572  0.103634  -0.100669
    C   C178  0.494415  0.411639  0.092982  -0.219186
    C   C179  0.463298  0.462727  0.889098  0.656845
    C   C180  0.529807  0.445126  0.085600  0.117688
    C   C181  0.531326  0.450779  0.126267  -0.124746
    C   C182  0.527555  0.469693  0.136745  -0.144782
    C   C183  0.526336  0.533251  0.139240  0.097124
    C   C184  0.529625  0.577716  0.131186  -0.183804
    C   C185  0.533665  0.558791  0.120721  -0.114945
    C   C186  0.534307  0.495233  0.118194  0.053933
    C   C187  0.549529  0.215038  0.871190  -0.057736
    C   C188  0.549673  0.147347  0.871178  -0.173040
    C   C189  0.496253  0.109825  0.868814  0.049650
    C   C190  0.531730  0.457661  0.848448  0.691816
    C   C191  0.442721  0.147284  0.866466  -0.172149
    C   C192  0.442708  0.215020  0.866480  -0.067684
    C   C193  0.496104  0.251958  0.868843  -0.089699
    C   C194  0.443843  0.996541  0.866074  -0.164580
    C   C195  0.444068  0.928825  0.866057  -0.157605
    C   C196  0.496915  0.891431  0.868761  0.077126
    C   C197  0.549495  0.929088  0.871487  -0.160115
    C   C198  0.549270  0.996790  0.871505  -0.159464
    C   C199  0.496441  0.034188  0.868798  0.078911
    C   C200  0.550646  0.778418  0.871180  -0.156940
    C   C201  0.497560  0.598700  0.868674  0.660087
    C   C202  0.550808  0.710686  0.871157  -0.121840
    C   C203  0.497658  0.673647  0.868693  0.012782
    C   C204  0.444297  0.710478  0.866257  -0.095023
    C   C205  0.444005  0.778178  0.866276  -0.163010
    C   C206  0.497198  0.815792  0.868739  0.058932
    C   C207  0.485620  0.427097  0.907211  -0.243694
    C   C208  0.470412  0.422622  0.917837  -0.140915
    C   C209  0.416958  0.451851  0.921720  0.123882
    C   C210  0.377637  0.484362  0.914907  -0.145158
    C   C211  0.391422  0.486556  0.904149  -0.167442
    C   C212  0.471097  0.559748  0.020286  0.708713
    C   C213  0.446110  0.458823  0.900337  0.089276
    C   C214  0.409095  0.506355  0.938854  -0.126786
    C   C215  0.410465  0.504355  0.949814  -0.166127
    C   C216  0.405705  0.447136  0.955066  0.073977
    C   C217  0.398036  0.392093  0.949357  -0.147809
    C   C218  0.399142  0.393883  0.938397  -0.157698
    C   C219  0.405263  0.450929  0.933149  0.057733
    C   C220  0.469920  0.468260  0.970805  -0.127645
    C   C221  0.481710  0.461727  0.981515  -0.225775
    C   C222  0.437731  0.432798  0.988061  0.069843
    C   C223  0.802821  0.747422  0.482313  0.683390
    C   C224  0.492457  0.421656  0.040979  0.611514
    C   C225  0.382274  0.409688  0.983832  -0.155802
    C   C226  0.371676  0.414024  0.973034  -0.125304
    C   C227  0.415207  0.443956  0.966536  0.097730
    C   C228  0.526194  0.176140  0.018422  -0.112112
    C   C229  0.526251  0.108407  0.018437  -0.165233
    C   C230  0.471714  0.070866  0.020125  0.058944
    C   C231  0.417200  0.108314  0.021791  -0.157746
    C   C232  0.417274  0.176014  0.021774  -0.099443
    C   C233  0.471718  0.213012  0.020090  0.014864
    C   C234  0.417520  0.957732  0.022121  -0.158902
    C   C235  0.449521  0.427852  0.999461  0.662072
    C   C236  0.417412  0.890027  0.022145  -0.150920
    C   C237  0.471409  0.852466  0.020200  0.071622
    C   C238  0.525539  0.889947  0.018229  -0.156793
    C   C239  0.525649  0.957665  0.018205  -0.167403
    C   C240  0.471638  0.995224  0.020150  0.074010
    C   C241  0.525911  0.739303  0.018760  -0.180005
    C   C242  0.525725  0.671597  0.018784  -0.056963
    C   C243  0.471024  0.634692  0.020281  -0.062648
    C   C244  0.416424  0.671652  0.021751  -0.070922
    C   C245  0.416478  0.739378  0.021727  -0.164431
    C   C246  0.471509  0.287957  0.020098  0.633246
    C   C247  0.471261  0.776830  0.020229  0.067507
    C   C248  0.055793  0.670358  0.501445  -0.130553
    C   C249  0.123467  0.670160  0.501455  -0.154419
    C   C250  0.161018  0.724675  0.503017  0.054611
    C   C251  0.123576  0.779347  0.504566  -0.158629
    C   C252  0.055873  0.779416  0.504554  -0.134899
    C   C253  0.018894  0.724941  0.502993  0.053993
    C   C254  0.274262  0.778682  0.504737  -0.166515
    C   C255  0.943956  0.724803  0.502988  0.616112
    C   C256  0.341945  0.778510  0.504750  -0.149521
    C   C257  0.379394  0.724120  0.503058  0.057199
    C   C258  0.341780  0.669915  0.501351  -0.147954
    C   C259  0.274093  0.670087  0.501339  -0.166802
    C   C260  0.236648  0.724482  0.503031  0.079986
    C   C261  0.492516  0.669547  0.501300  -0.197973
    C   C262  0.560225  0.669514  0.501317  -0.045696
    C   C263  0.597171  0.723762  0.503105  -0.076455
    C   C264  0.560224  0.778076  0.504874  -0.063114
    C   C265  0.492548  0.778236  0.504862  -0.181569
    C   C266  0.360370  0.385503  0.393847  0.610790
    C   C267  0.455031  0.723951  0.503073  0.078261
    C   C268  0.510220  0.550170  0.420970  -0.156193
    C   C269  0.534571  0.599716  0.426727  -0.159792
    C   C270  0.567527  0.647543  0.421628  0.096827
    C   C271  0.571693  0.647910  0.410651  -0.175475
    C   C272  0.545871  0.599131  0.404859  -0.194460
    C   C273  0.517358  0.548820  0.410044  0.097539
    C   C274  0.669509  0.697006  0.425680  -0.056166
    C   C275  0.709502  0.723427  0.433047  -0.217208
    C   C276  0.685904  0.745190  0.442631  0.110694
    C   C277  0.503316  0.490860  0.404209  0.583828
    C   C278  0.621471  0.744485  0.444462  -0.149877
    C   C279  0.581661  0.716733  0.437205  -0.233090
    C   C280  0.605855  0.690834  0.427963  0.026399
    C   C281  0.772575  0.710634  0.454046  -0.069334
    C   C282  0.801029  0.710610  0.463862  -0.192049
    C   C283  0.787065  0.757329  0.471137  0.004750
    C   C284  0.747755  0.806560  0.468277  -0.131567
    C   C285  0.717661  0.805488  0.458564  -0.167670
    C   C286  0.728469  0.756356  0.451562  0.067587
    C   C287  0.789556  0.625984  0.538586  -0.150638
    C   C288  0.488954  0.274589  0.383038  0.674448
    C   C289  0.765412  0.612884  0.548565  -0.054132
    C   C290  0.745641  0.661513  0.555105  0.032205
    C   C291  0.755066  0.723406  0.551916  -0.192981
    C   C292  0.779635  0.736559  0.541967  -0.110806
    C   C293  0.794533  0.687816  0.535104  0.049078
    C   C294  0.722147  0.597219  0.571199  -0.161718
    C   C295  0.681735  0.580341  0.579400  -0.129320
    C   C296  0.625734  0.612744  0.580902  0.113988
    C   C297  0.611937  0.663814  0.574466  -0.289946
    C   C298  0.652624  0.681248  0.566402  -0.118022
    C   C299  0.632146  0.379744  0.393476  0.647593
    C   C300  0.707463  0.647474  0.564599  0.118619
    C   C301  0.516525  0.590645  0.586601  -0.191045
    C   C302  0.472607  0.575488  0.594319  -0.144195
    C   C303  0.491734  0.562827  0.604594  0.157127
    C   C304  0.555401  0.563070  0.606984  -0.245280
    C   C305  0.599467  0.577421  0.599201  -0.108864
    C   C306  0.580032  0.592647  0.589033  0.045417
    C   C307  0.248203  0.357527  0.401873  -0.103701
    C   C308  0.180532  0.356895  0.401854  -0.168915
    C   C309  0.143255  0.384228  0.393743  0.038385
    C   C310  0.444434  0.553549  0.612993  0.522437
    C   C311  0.180995  0.412273  0.385665  -0.158806
    C   C312  0.248707  0.412845  0.385703  -0.147984
    C   C313  0.285411  0.385523  0.393809  0.008719
    C   C314  0.030247  0.410745  0.385630  -0.170854
    C   C315  0.962566  0.410012  0.385601  -0.177015
    C   C316  0.924856  0.381896  0.393650  0.052750
    C   C317  0.962218  0.354600  0.401733  -0.188773
    C   C318  0.029903  0.355332  0.401763  -0.166643
    C   C319  0.067613  0.383439  0.393712  0.034474
    C   C320  0.811475  0.352007  0.401584  -0.166291
    H   H1    0.031801  0.625899  0.500178  0.114927
    H   H2    0.584182  0.625207  0.499867  0.078231
    H   H3    0.243002  0.574141  0.280161  0.142524
    H   H4    0.228372  0.640748  0.234536  0.135326
    H   H5    0.301397  0.670068  0.220322  0.177908
    H   H6    0.456790  0.643288  0.241372  0.133446
    H   H7    0.383797  0.614357  0.255602  0.101550
    H   H8    0.474205  0.575154  0.225455  0.143833
    H   H9    0.527391  0.560737  0.208471  0.106176
    H   H10   0.441548  0.729625  0.196719  0.135209
    H   H11   0.386899  0.743173  0.213698  0.089647
    H   H12   0.426632  0.964158  0.728204  0.125115
    H   H13   0.584180  0.822344  0.506329  0.072917
    H   H14   0.427202  0.849610  0.728184  0.129575
    H   H15   0.271279  0.849163  0.749961  0.139545
    H   H16   0.271631  0.963684  0.749899  0.125748
    H   H17   0.273596  0.744205  0.750390  0.146397
    H   H18   0.273469  0.630866  0.750379  0.128439
    H   H19   0.425040  0.631226  0.727812  0.129946
    H   H20   0.424966  0.744585  0.727785  0.157326
    H   H21   0.423870  0.526211  0.727576  0.117630
    H   H22   0.423402  0.411682  0.727634  0.088982
    H   H23   0.274671  0.411316  0.750544  0.100383
    H   H24   0.469759  0.822985  0.506327  0.128923
    H   H25   0.274465  0.525854  0.750617  0.135066
    H   H26   0.415397  0.158878  0.775327  0.138756
    H   H27   0.473377  0.202308  0.790263  0.202637
    H   H28   0.597926  0.297708  0.768697  0.122256
    H   H29   0.541237  0.252412  0.753694  0.133708
    H   H30   0.546795  0.378105  0.781401  0.138929
    H   H31   0.560318  0.441500  0.797403  0.150957
    H   H32   0.595192  0.273663  0.815380  0.175178
    H   H33   0.580245  0.210170  0.799425  0.139997
    H   H34   0.659813  0.362013  0.823885  0.092046
    H   H35   0.488357  0.511080  0.425161  0.116960
    H   H36   0.639509  0.404552  0.841576  0.126505
    H   H37   0.462711  0.478154  0.830913  0.090587
    H   H38   0.484156  0.437191  0.813173  0.146277
    H   H39   0.292355  0.684897  0.164978  0.092010
    H   H40   0.177913  0.685683  0.165075  0.127006
    H   H41   0.177246  0.493096  0.175397  0.150769
    H   H42   0.291757  0.493288  0.175260  0.087925
    H   H43   0.072131  0.493974  0.175716  0.126874
    H   H44   0.958811  0.494473  0.175889  0.127599
    H   H45   0.959602  0.686024  0.165173  0.133953
    H   H46   0.532287  0.597653  0.435325  0.190459
    H   H47   0.072911  0.685582  0.165025  0.129296
    H   H48   0.854558  0.687806  0.165979  0.123297
    H   H49   0.740045  0.687699  0.166130  0.111281
    H   H50   0.739359  0.494510  0.175530  0.103613
    H   H51   0.853808  0.493589  0.175385  0.122543
    H   H52   0.404687  0.414858  0.056454  0.090854
    H   H53   0.420571  0.425428  0.075398  0.121933
    H   H54   0.619916  0.441619  0.070245  0.098536
    H   H55   0.603862  0.432348  0.051160  0.093444
    H   H56   0.597214  0.519919  0.083392  0.145531
    H   H57   0.597469  0.684949  0.406559  0.131048
    H   H58   0.603586  0.545303  0.102162  0.151183
    H   H59   0.467364  0.401400  0.109193  0.130159
    H   H60   0.463406  0.373920  0.090493  0.145686
    H   H61   0.532732  0.400828  0.124487  0.107246
    H   H62   0.525402  0.434087  0.142927  0.089947
    H   H63   0.528572  0.627684  0.132952  0.089964
    H   H64   0.534320  0.594435  0.114537  0.132783
    H   H65   0.593095  0.239029  0.873106  0.072608
    H   H66   0.593743  0.124560  0.873085  0.125543
    H   H67   0.398722  0.124385  0.864547  0.134253
    H   H68   0.552578  0.598588  0.396318  0.168843
    H   H69   0.399125  0.238999  0.864566  0.099319
    H   H70   0.400346  0.019279  0.863812  0.121310
    H   H71   0.400701  0.905892  0.863787  0.126504
    H   H72   0.593007  0.906376  0.873746  0.132210
    H   H73   0.592630  0.019705  0.873781  0.129620
    H   H74   0.594467  0.801374  0.873187  0.129470
    H   H75   0.594314  0.686793  0.873147  0.107878
    H   H76   0.400906  0.686408  0.864259  0.097453
    H   H77   0.400028  0.800899  0.864287  0.124505
    H   H78   0.528257  0.404724  0.904306  0.148391
    H   H79   0.689572  0.675656  0.418615  0.117944
    H   H80   0.501800  0.398003  0.923193  0.157728
    H   H81   0.335869  0.507671  0.917965  0.128470
    H   H82   0.360430  0.511855  0.898818  0.112098
    H   H83   0.415432  0.550948  0.934753  0.127841
    H   H84   0.416777  0.547586  0.954260  0.142709
    H   H85   0.395564  0.347030  0.953425  0.150131
    H   H86   0.397094  0.350306  0.933929  0.130518
    H   H87   0.504733  0.490750  0.965717  0.144272
    H   H88   0.525042  0.480508  0.984742  0.140489
    H   H89   0.347610  0.386705  0.988884  0.109378
    H   H90   0.759854  0.723283  0.431538  0.136239
    H   H91   0.328814  0.394717  0.969713  0.111347
    H   H92   0.570619  0.200176  0.017057  0.106121
    H   H93   0.571124  0.085585  0.017084  0.126237
    H   H94   0.372313  0.085458  0.023157  0.123895
    H   H95   0.372843  0.199944  0.023134  0.097241
    H   H96   0.372987  0.980572  0.023755  0.125310
    H   H97   0.372829  0.867230  0.023805  0.123360
    H   H98   0.570051  0.867077  0.016585  0.132651
    H   H99   0.570243  0.980472  0.016556  0.133357
    H   H100  0.570991  0.762110  0.017564  0.132341
    H   H101  0.602290  0.759703  0.452032  0.188103
    H   H102  0.570275  0.647588  0.017587  0.072922
    H   H103  0.371806  0.647694  0.022958  0.088957
    H   H104  0.371474  0.762270  0.022904  0.123302
    H   H105  0.146226  0.625182  0.500190  0.131219
    H   H106  0.531980  0.712101  0.439111  0.148465
    H   H107  0.780319  0.670818  0.448820  0.094985
    H   H108  0.831139  0.671447  0.466040  0.120556
    H   H109  0.735267  0.842737  0.473978  0.130112
    H   H110  0.682931  0.841329  0.456747  0.117753
    H   H111  0.800732  0.587084  0.533339  0.083760
    H   H112  0.757398  0.564141  0.550800  0.093093
    H   H113  0.740850  0.762126  0.556997  0.123922
    H   H114  0.783165  0.785286  0.539417  0.101541
    H   H115  0.764959  0.570342  0.569937  0.114124
    H   H116  0.146462  0.824231  0.505840  0.134002
    H   H117  0.693051  0.539927  0.584318  0.121625
    H   H118  0.568917  0.690494  0.575636  0.173106
    H   H119  0.639212  0.719671  0.561198  0.176352
    H   H120  0.500539  0.600963  0.578624  0.205760
    H   H121  0.423118  0.575522  0.592257  0.108262
    H   H122  0.571324  0.553394  0.614986  0.163275
    H   H123  0.648934  0.579340  0.601264  0.126929
    H   H124  0.271953  0.335072  0.408474  0.112582
    H   H125  0.157544  0.333877  0.408503  0.146565
    H   H126  0.158339  0.434810  0.378990  0.135494
    H   H127  0.031950  0.823939  0.505818  0.117533
    H   H128  0.272863  0.435520  0.379109  0.145792
    H   H129  0.053198  0.433841  0.378985  0.161323
    H   H130  0.939911  0.432565  0.378929  0.162569
    H   H131  0.939257  0.331563  0.408384  0.158935
    H   H132  0.052563  0.332725  0.408430  0.147190
    H   H133  0.834126  0.328567  0.408171  0.152344
    H   H134  0.719593  0.327881  0.408044  0.132961
    H   H135  0.720562  0.432054  0.379048  0.127087
    H   H136  0.834957  0.433371  0.379042  0.142339
    H   H137  0.119435  0.240181  0.320756  0.193262
    H   H138  0.251523  0.823524  0.506144  0.127226
    H   H139  0.154131  0.174279  0.335393  0.141211
    H   H140  0.326477  0.137260  0.318185  0.134532
    H   H141  0.285965  0.194888  0.303260  0.124544
    H   H142  0.342818  0.068488  0.330942  0.123989
    H   H143  0.414100  0.068218  0.345963  0.110333
    H   H144  0.285970  0.184126  0.363434  0.148791
    H   H145  0.218892  0.191988  0.348421  0.185308
    H   H146  0.464743  0.178398  0.351196  0.167010
    H   H147  0.523359  0.246317  0.363134  0.161351
    H   H148  0.409384  0.183065  0.389224  0.143820
    H   H149  0.364813  0.823259  0.506153  0.117570
    H   H150  0.348675  0.117251  0.377141  0.113690
    H   H151  0.287566  0.323543  0.616173  0.116263
    H   H152  0.286610  0.209032  0.616209  0.124240
    H   H153  0.430435  0.208684  0.639918  0.136087
    H   H154  0.430719  0.323241  0.639753  0.131343
    H   H155  0.430409  0.103602  0.639872  0.135271
    H   H156  0.429519  0.990248  0.640003  0.150506
    H   H157  0.284448  0.990719  0.616576  0.143186
    H   H158  0.285215  0.104057  0.616467  0.132875
    H   H159  0.282257  0.885704  0.616906  0.143952
    H   H160  0.364524  0.625061  0.499957  0.128034
    H   H161  0.281966  0.771154  0.617056  0.121073
    H   H162  0.429054  0.770716  0.639938  0.116770
    H   H163  0.430177  0.885229  0.639888  0.136580
    H   H164  0.150318  0.245152  0.724974  0.154731
    H   H165  0.093989  0.299342  0.710825  0.120145
    H   H166  0.231848  0.234914  0.688309  0.196181
    H   H167  0.287794  0.181296  0.702358  0.125253
    H   H168  0.139526  0.252469  0.677583  0.135052
    H   H169  0.140329  0.334491  0.664116  0.136444
    H   H170  0.133008  0.475428  0.688415  0.125341
    H   H171  0.251217  0.625354  0.499923  0.137960
    H   H172  0.133990  0.393444  0.701887  0.149062
    H   H173  0.098717  0.426780  0.654944  0.118742
    H   H174  0.156909  0.483062  0.641100  0.160874
    H   H175  0.285147  0.552671  0.664465  0.128206
    H   H176  0.227370  0.497057  0.678209  0.178797
    H   H177  0.961504  0.299225  0.277067  0.121649
    H   H178  0.847012  0.298723  0.277054  0.137151
    H   H179  0.846291  0.435417  0.302034  0.127139
    H   H180  0.960743  0.435110  0.301944  0.124064
    H   H181  0.741280  0.433063  0.302390  0.153736
    H   H182  0.469660  0.624871  0.499823  0.120935
    H   H183  0.627963  0.433010  0.302428  0.140909
    H   H184  0.628660  0.300472  0.276879  0.132423
    H   H185  0.741965  0.300804  0.276799  0.154364
    H   H186  0.523688  0.303042  0.276511  0.151375
    H   H187  0.409235  0.303025  0.276639  0.095460
    H   H188  0.408365  0.429559  0.302878  0.099971
    H   H189  0.522873  0.430028  0.302906  0.135207
    H   H190  0.172524  0.460642  0.254743  0.109540
    H   H191  0.220964  0.531817  0.241905  0.209224
    H   H192  0.292637  0.644763  0.267259  0.107659
    O   O1    0.705692  0.776354  0.504814  -0.677801
    O   O2    0.499649  0.436988  0.409353  -0.690728
    O   O3    0.503265  0.491242  0.393789  -0.644883
    O   O4    0.393526  0.358368  0.401617  -0.660665
    O   O5    0.487396  0.273878  0.393465  -0.684613
    O   O6    0.599020  0.407663  0.385782  -0.673678
    O   O7    0.597289  0.352657  0.401150  -0.703670
    O   O8    0.494006  0.328527  0.377967  -0.697015
    O   O9    0.384309  0.552301  0.610606  -0.688967
    O   O10   0.396984  0.445370  0.634179  -0.671267
    O   O11   0.321041  0.445210  0.621710  -0.646129
    O   O12   0.807539  0.654284  0.517027  -0.634794
    O   O13   0.461649  0.551386  0.622979  -0.622859
    O   O14   0.394454  0.649150  0.634583  -0.674474
    O   O15   0.252948  0.539558  0.633478  -0.673126
    O   O16   0.330272  0.542840  0.645835  -0.684174
    O   O17   0.316701  0.648964  0.622441  -0.693260
    O   O18   0.286382  0.399733  0.296669  -0.659892
    O   O19   0.186548  0.403572  0.272502  -0.706239
    O   O20   0.189016  0.473355  0.286136  -0.683773
    O   O21   0.287339  0.332474  0.282804  -0.660677
    O   O22   0.190447  0.259689  0.293147  -0.691277
    O   O23   0.806218  0.759425  0.520324  -0.681812
    O   O24   0.082616  0.403024  0.296139  -0.677288
    O   O25   0.083485  0.331351  0.282937  -0.692678
    O   O26   0.183469  0.329538  0.306754  -0.711714
    O   O27   0.388417  0.289817  0.733010  -0.669614
    O   O28   0.370705  0.186602  0.756813  -0.707649
    O   O29   0.451568  0.191042  0.744927  -0.685636
    O   O30   0.309443  0.289427  0.745112  -0.662276
    O   O31   0.246061  0.193175  0.733153  -0.679611
    O   O32   0.389810  0.086010  0.733274  -0.682157
    O   O33   0.308000  0.085587  0.744800  -0.677230
    O   O34   0.706531  0.671904  0.501421  -0.685175
    O   O35   0.326891  0.190525  0.721263  -0.663426
    O   O36   0.507166  0.669095  0.183015  -0.730023
    O   O37   0.617903  0.539843  0.173371  -0.675103
    O   O38   0.617630  0.642037  0.168348  -0.692834
    O   O39   0.511186  0.566683  0.188259  -0.666127
    O   O40   0.414120  0.538629  0.172851  -0.718124
    O   O41   0.520334  0.613665  0.152694  -0.687088
    O   O42   0.520111  0.511238  0.157990  -0.656598
    O   O43   0.413888  0.640107  0.167402  -0.681985
    O   O44   0.445324  0.361377  0.866555  -0.716178
    O   O45   0.806780  0.689381  0.485884  -0.660911
    O   O46   0.522977  0.460616  0.886349  -0.716956
    O   O47   0.419679  0.465367  0.881763  -0.698184
    O   O48   0.547983  0.360367  0.871135  -0.657792
    O   O49   0.574755  0.457487  0.855874  -0.723535
    O   O50   0.446184  0.565160  0.866306  -0.692748
    O   O51   0.548520  0.564250  0.871039  -0.703555
    O   O52   0.471814  0.460683  0.851090  -0.697182
    O   O53   0.523753  0.526125  0.018819  -0.694480
    O   O54   0.434649  0.421692  0.037347  -0.673940
    O   O55   0.540217  0.422851  0.034302  -0.680405
    O   O56   0.909550  0.777004  0.504496  -0.691561
    O   O57   0.418686  0.525410  0.021727  -0.713574
    O   O58   0.402025  0.424464  0.006156  -0.690961
    O   O59   0.523695  0.322354  0.018492  -0.691560
    O   O60   0.418991  0.321534  0.021736  -0.681640
    O   O61   0.507511  0.428902  0.003029  -0.714262
    O   O62   0.910359  0.672230  0.501491  -0.684929
    O   O63   0.801744  0.794619  0.489038  -0.722612
    O   O64   0.395212  0.411800  0.386092  -0.678110
    Zn  Zn1   0.807344  0.791509  0.505120  1.389955
    Zn  Zn2   0.297319  0.187382  0.746629  1.365831
    Zn  Zn3   0.515610  0.655589  0.167132  1.393577
    Zn  Zn4   0.516193  0.524833  0.173870  1.355405
    Zn  Zn5   0.431284  0.463641  0.865747  1.375837
    Zn  Zn6   0.562870  0.461940  0.871761  1.395812
    Zn  Zn7   0.538613  0.424509  0.018201  1.384829
    Zn  Zn8   0.403849  0.423198  0.022188  1.371846
    Zn  Zn9   0.808782  0.657323  0.500998  1.361736
    Zn  Zn10  0.497644  0.417363  0.383730  1.340396
    Zn  Zn11  0.494916  0.347884  0.403574  1.345635
    Zn  Zn12  0.307975  0.547000  0.620308  1.366996
    Zn  Zn13  0.406556  0.547378  0.636138  1.356841
    Zn  Zn14  0.184231  0.411086  0.298338  1.368096
    Zn  Zn15  0.185618  0.322129  0.280947  1.361148
    Zn  Zn16  0.400344  0.187984  0.731438  1.367544
