# Generated by REPEAT Assigner based on pymatgen
data_DB0-m2_o3_o29_f0_nbo.sym.52_sqe
_audit_creation_date              2022-05-24
_audit_creation_method            REPEAT_Assigner
_cell_length_a                    38.581073
_cell_length_b                    38.581073
_cell_length_c                    54.908649
_cell_angle_alpha                 90.000000
_cell_angle_beta                  90.000000
_cell_angle_gamma                 90.000000
_cell_volume                      81731.480321
_symmetry_space_group_name_H-M    P1
_symmetry_Int_Tables_number       1
loop_
    _symmetry_equiv_pos_site_id
    _symmetry_equiv_pos_as_xyz
    1  x,y,z
loop_
    _atom_site_type_symbol
    _atom_site_label
    _atom_site_fract_x
    _atom_site_fract_y
    _atom_site_fract_z
    _atom_type_partial_charge
    O   O1    0.049408  0.471429  0.506767  -0.668920
    O   O2    0.528571  0.049408  0.506767  -0.668976
    O   O3    0.950592  0.528571  0.506767  -0.668932
    O   O4    0.471429  0.950592  0.506767  -0.668966
    O   O5    0.049408  0.528571  0.493233  -0.668939
    O   O6    0.528571  0.950592  0.493233  -0.668963
    O   O7    0.950592  0.471429  0.493233  -0.668940
    O   O8    0.471429  0.049408  0.493233  -0.669073
    O   O9    0.549408  0.971429  0.006767  -0.668891
    O   O10   0.028571  0.549408  0.006767  -0.668907
    O   O11   0.450592  0.028571  0.006767  -0.668903
    O   O12   0.971429  0.450592  0.006767  -0.668912
    O   O13   0.549408  0.028571  0.993233  -0.668889
    O   O14   0.028571  0.450592  0.993233  -0.668916
    O   O15   0.450592  0.971429  0.993233  -0.668892
    O   O16   0.971429  0.549408  0.993233  -0.668902
    C   C1    0.065652  0.500000  0.500000  0.941076
    C   C2    0.500000  0.065652  0.500000  0.941351
    C   C3    0.934348  0.500000  0.500000  0.941136
    C   C4    0.500000  0.934348  0.500000  0.941218
    C   C5    0.565652  0.000000  0.000000  0.940933
    C   C6    0.000000  0.565652  0.000000  0.940991
    C   C7    0.434348  0.000000  0.000000  0.940965
    C   C8    0.000000  0.434348  0.000000  0.941011
    O   O17   0.009573  0.471446  0.465304  -0.604058
    O   O18   0.528554  0.009573  0.465304  -0.604085
    O   O19   0.990427  0.528554  0.465304  -0.604064
    O   O20   0.471446  0.990427  0.465304  -0.604071
    O   O21   0.009573  0.528554  0.534696  -0.604004
    O   O22   0.528554  0.990427  0.534696  -0.604021
    O   O23   0.990427  0.471446  0.534696  -0.604003
    O   O24   0.471446  0.009573  0.534696  -0.604019
    O   O25   0.509573  0.971446  0.965304  -0.604023
    O   O26   0.028554  0.509573  0.965304  -0.604043
    O   O27   0.490427  0.028554  0.965304  -0.604035
    O   O28   0.971446  0.490427  0.965304  -0.604037
    O   O29   0.509573  0.028554  0.034696  -0.604032
    O   O30   0.028554  0.490427  0.034696  -0.604037
    O   O31   0.490427  0.971446  0.034696  -0.604022
    O   O32   0.971446  0.509573  0.034696  -0.604029
    C   C9    0.000000  0.500000  0.453863  0.694221
    C   C10   0.500000  0.000000  0.453863  0.694257
    C   C11   0.000000  0.500000  0.546137  0.694152
    C   C12   0.500000  0.000000  0.546137  0.694138
    C   C13   0.500000  0.000000  0.953863  0.694266
    C   C14   0.000000  0.500000  0.953863  0.694283
    C   C15   0.500000  0.000000  0.046137  0.694265
    C   C16   0.000000  0.500000  0.046137  0.694286
    Cu  Cu1   0.000000  0.466172  0.500000  1.023968
    Cu  Cu2   0.533829  0.000000  0.500000  1.023987
    Cu  Cu3   0.000000  0.533829  0.500000  1.023999
    Cu  Cu4   0.466172  0.000000  0.500000  1.023997
    Cu  Cu5   0.500000  0.966171  0.000000  1.023962
    Cu  Cu6   0.033828  0.500000  0.000000  1.023932
    Cu  Cu7   0.500000  0.033828  0.000000  1.023928
    Cu  Cu8   0.966171  0.500000  0.000000  1.023930
    C   C17   0.021339  0.522797  0.262725  0.047810
    C   C18   0.477203  0.021339  0.262725  0.047471
    C   C19   0.978661  0.477203  0.262725  0.048089
    C   C20   0.522797  0.978661  0.262725  0.046717
    C   C21   0.021339  0.477203  0.737275  0.044954
    C   C22   0.477203  0.978661  0.737275  0.045234
    C   C23   0.978661  0.522797  0.737275  0.045262
    C   C24   0.522797  0.021339  0.737275  0.044956
    C   C25   0.521339  0.022797  0.762725  0.047585
    C   C26   0.977203  0.521339  0.762725  0.047454
    C   C27   0.478661  0.977203  0.762725  0.047459
    C   C28   0.022797  0.478661  0.762725  0.047590
    C   C29   0.521339  0.977203  0.237275  0.045712
    C   C30   0.977203  0.478661  0.237275  0.044574
    C   C31   0.478661  0.022797  0.237275  0.044695
    C   C32   0.022797  0.521339  0.237275  0.044702
    C   C33   0.000000  0.500000  0.275274  0.004035
    C   C34   0.500000  0.000000  0.275274  0.004908
    C   C35   0.000000  0.500000  0.724726  0.006699
    C   C36   0.500000  0.000000  0.724726  0.006712
    C   C37   0.500000  0.000000  0.775274  0.004390
    C   C38   0.000000  0.500000  0.775274  0.004394
    C   C39   0.500000  0.000000  0.224726  0.006617
    C   C40   0.000000  0.500000  0.224726  0.007057
    C   C41   0.040512  0.546806  0.276057  -0.185861
    C   C42   0.453194  0.040512  0.276057  -0.185688
    C   C43   0.959487  0.453194  0.276057  -0.186229
    C   C44   0.546806  0.959488  0.276057  -0.185668
    C   C45   0.040512  0.453194  0.723943  -0.184988
    C   C46   0.453194  0.959487  0.723943  -0.185369
    C   C47   0.959488  0.546806  0.723943  -0.185381
    C   C48   0.546806  0.040512  0.723943  -0.185004
    C   C49   0.540512  0.046806  0.776057  -0.185744
    C   C50   0.953194  0.540512  0.776057  -0.185646
    C   C51   0.459488  0.953194  0.776057  -0.185642
    C   C52   0.046806  0.459488  0.776057  -0.185743
    C   C53   0.540512  0.953194  0.223943  -0.185018
    C   C54   0.953194  0.459488  0.223943  -0.184718
    C   C55   0.459488  0.046806  0.223943  -0.184712
    C   C56   0.046806  0.540512  0.223943  -0.184819
    C   C57   0.039801  0.546921  0.301030  -0.036862
    C   C58   0.453079  0.039801  0.301030  -0.036997
    C   C59   0.960199  0.453079  0.301030  -0.036675
    C   C60   0.546921  0.960199  0.301030  -0.036932
    C   C61   0.039801  0.453079  0.698970  -0.037388
    C   C62   0.453079  0.960199  0.698970  -0.037196
    C   C63   0.960199  0.546921  0.698970  -0.037183
    C   C64   0.546921  0.039801  0.698970  -0.037383
    C   C65   0.539801  0.046921  0.801030  -0.036943
    C   C66   0.953079  0.539801  0.801030  -0.036999
    C   C67   0.460199  0.953079  0.801030  -0.037009
    C   C68   0.046921  0.460199  0.801030  -0.036953
    C   C69   0.539801  0.953079  0.198970  -0.037469
    C   C70   0.953079  0.460199  0.198970  -0.037619
    C   C71   0.460199  0.046921  0.198970  -0.037454
    C   C72   0.046921  0.539801  0.198970  -0.037560
    C   C73   0.019900  0.523283  0.313422  -0.119453
    C   C74   0.476717  0.019900  0.313422  -0.119336
    C   C75   0.980100  0.476717  0.313422  -0.119510
    C   C76   0.523283  0.980100  0.313422  -0.119148
    C   C77   0.019900  0.476717  0.686578  -0.118450
    C   C78   0.476717  0.980100  0.686578  -0.118510
    C   C79   0.980100  0.523283  0.686578  -0.118524
    C   C80   0.523283  0.019900  0.686578  -0.118453
    C   C81   0.519900  0.023283  0.813422  -0.119358
    C   C82   0.976717  0.519900  0.813422  -0.119326
    C   C83   0.480100  0.976717  0.813422  -0.119308
    C   C84   0.023283  0.480100  0.813422  -0.119354
    C   C85   0.519900  0.976717  0.186578  -0.118446
    C   C86   0.976717  0.480100  0.186578  -0.118314
    C   C87   0.480100  0.023283  0.186578  -0.118718
    C   C88   0.023283  0.519900  0.186578  -0.118362
    C   C89   0.000000  0.500000  0.300605  0.125051
    C   C90   0.500000  0.000000  0.300605  0.124611
    C   C91   0.000000  0.500000  0.699395  0.123349
    C   C92   0.500000  0.000000  0.699395  0.123337
    C   C93   0.500000  0.000000  0.800605  0.124837
    C   C94   0.000000  0.500000  0.800605  0.124830
    C   C95   0.500000  0.000000  0.199395  0.123568
    C   C96   0.000000  0.500000  0.199395  0.123186
    C   C97   0.019648  0.523047  0.338607  0.437803
    C   C98   0.476953  0.019648  0.338607  0.437787
    C   C99   0.980352  0.476953  0.338607  0.437784
    C   C100  0.523047  0.980352  0.338607  0.437642
    C   C101  0.019648  0.476953  0.661393  0.437237
    C   C102  0.476953  0.980352  0.661393  0.437223
    C   C103  0.980352  0.523047  0.661393  0.437240
    C   C104  0.523047  0.019648  0.661393  0.437240
    C   C105  0.519648  0.023047  0.838607  0.437818
    C   C106  0.976953  0.519648  0.838607  0.437797
    C   C107  0.480352  0.976953  0.838607  0.437784
    C   C108  0.023047  0.480352  0.838607  0.437800
    C   C109  0.519648  0.976953  0.161393  0.437463
    C   C110  0.976953  0.480352  0.161393  0.437642
    C   C111  0.480352  0.023047  0.161393  0.437808
    C   C112  0.023047  0.519648  0.161393  0.437673
    N   N1    0.000000  0.500000  0.350791  -0.090379
    N   N2    0.500000  0.000000  0.350791  -0.090327
    N   N3    0.000000  0.500000  0.649209  -0.089516
    N   N4    0.500000  0.000000  0.649209  -0.089509
    N   N5    0.500000  0.000000  0.850791  -0.090429
    N   N6    0.000000  0.500000  0.850791  -0.090428
    N   N7    0.500000  0.000000  0.149209  -0.090353
    N   N8    0.000000  0.500000  0.149209  -0.090405
    H   H1    0.055829  0.566951  0.267905  0.150383
    H   H2    0.433049  0.055829  0.267905  0.150360
    H   H3    0.944171  0.433049  0.267905  0.150480
    H   H4    0.566951  0.944171  0.267905  0.150377
    H   H5    0.055829  0.433049  0.732095  0.150294
    H   H6    0.433049  0.944171  0.732095  0.150397
    H   H7    0.944171  0.566951  0.732095  0.150395
    H   H8    0.566951  0.055829  0.732095  0.150300
    H   H9    0.555829  0.066951  0.767905  0.150363
    H   H10   0.933049  0.555829  0.767905  0.150337
    H   H11   0.444171  0.933049  0.767905  0.150338
    H   H12   0.066951  0.444171  0.767905  0.150362
    H   H13   0.555829  0.933049  0.232095  0.150250
    H   H14   0.933049  0.444171  0.232095  0.150244
    H   H15   0.444171  0.066951  0.232095  0.150237
    H   H16   0.066951  0.555829  0.232095  0.150266
    H   H17   0.055116  0.566028  0.310566  0.130140
    H   H18   0.433972  0.055116  0.310566  0.130162
    H   H19   0.944884  0.433972  0.310566  0.130117
    H   H20   0.566028  0.944884  0.310566  0.130140
    H   H21   0.055116  0.433972  0.689434  0.130214
    H   H22   0.433972  0.944884  0.689434  0.130191
    H   H23   0.944884  0.566028  0.689434  0.130188
    H   H24   0.566028  0.055116  0.689434  0.130212
    H   H25   0.555116  0.066028  0.810566  0.130153
    H   H26   0.933972  0.555116  0.810566  0.130161
    H   H27   0.444884  0.933972  0.810566  0.130161
    H   H28   0.066028  0.444884  0.810566  0.130157
    H   H29   0.555116  0.933972  0.189434  0.130207
    H   H30   0.933972  0.444884  0.189434  0.130247
    H   H31   0.444884  0.066028  0.189434  0.130218
    H   H32   0.066028  0.555116  0.189434  0.130239
    O   O33   0.039687  0.545358  0.351055  -0.531778
    O   O34   0.454642  0.039687  0.351055  -0.531778
    O   O35   0.960313  0.454642  0.351055  -0.531775
    O   O36   0.545358  0.960313  0.351055  -0.531751
    O   O37   0.039687  0.454642  0.648945  -0.531736
    O   O38   0.454642  0.960313  0.648945  -0.531738
    O   O39   0.960313  0.545358  0.648945  -0.531741
    O   O40   0.545358  0.039687  0.648945  -0.531731
    O   O41   0.539687  0.045358  0.851055  -0.531772
    O   O42   0.954642  0.539687  0.851055  -0.531767
    O   O43   0.460313  0.954642  0.851055  -0.531758
    O   O44   0.045358  0.460313  0.851055  -0.531770
    O   O45   0.539687  0.954642  0.148945  -0.531720
    O   O46   0.954642  0.460313  0.148945  -0.531783
    O   O47   0.460313  0.045358  0.148945  -0.531806
    O   O48   0.045358  0.539687  0.148945  -0.531793
    C   C113  0.011412  0.471273  0.389393  -0.184140
    C   C114  0.528727  0.011412  0.389393  -0.184170
    C   C115  0.988588  0.528727  0.389393  -0.184148
    C   C116  0.471273  0.988588  0.389393  -0.184128
    C   C117  0.011412  0.528727  0.610607  -0.184212
    C   C118  0.528727  0.988588  0.610607  -0.184199
    C   C119  0.988588  0.471273  0.610607  -0.184204
    C   C120  0.471273  0.011412  0.610607  -0.184205
    C   C121  0.511412  0.971273  0.889393  -0.184137
    C   C122  0.028727  0.511413  0.889393  -0.184179
    C   C123  0.488588  0.028727  0.889393  -0.184141
    C   C124  0.971273  0.488588  0.889393  -0.184156
    C   C125  0.511413  0.028727  0.110607  -0.184160
    C   C126  0.028727  0.488588  0.110607  -0.184165
    C   C127  0.488588  0.971273  0.110607  -0.184231
    C   C128  0.971273  0.511412  0.110607  -0.184165
    H   H33   0.020693  0.448771  0.379643  0.145879
    H   H34   0.551229  0.020693  0.379643  0.145891
    H   H35   0.979307  0.551229  0.379643  0.145881
    H   H36   0.448771  0.979307  0.379643  0.145871
    H   H37   0.020693  0.551229  0.620357  0.145911
    H   H38   0.551229  0.979307  0.620357  0.145908
    H   H39   0.979307  0.448771  0.620357  0.145907
    H   H40   0.448771  0.020693  0.620357  0.145908
    H   H41   0.520693  0.948771  0.879643  0.145878
    H   H42   0.051229  0.520693  0.879643  0.145892
    H   H43   0.479307  0.051229  0.879643  0.145878
    H   H44   0.948771  0.479307  0.879643  0.145881
    H   H45   0.520693  0.051229  0.120357  0.145880
    H   H46   0.051229  0.479307  0.120357  0.145883
    H   H47   0.479307  0.948771  0.120357  0.145901
    H   H48   0.948771  0.520693  0.120357  0.145883
    C   C129  0.011432  0.471232  0.414489  -0.067043
    C   C130  0.528768  0.011432  0.414489  -0.067042
    C   C131  0.988568  0.528768  0.414489  -0.067033
    C   C132  0.471232  0.988568  0.414489  -0.067044
    C   C133  0.011432  0.528768  0.585511  -0.067082
    C   C134  0.528768  0.988568  0.585511  -0.067109
    C   C135  0.988568  0.471232  0.585511  -0.067085
    C   C136  0.471232  0.011432  0.585511  -0.067088
    C   C137  0.511432  0.971232  0.914489  -0.067032
    C   C138  0.028768  0.511432  0.914489  -0.067005
    C   C139  0.488568  0.028768  0.914489  -0.067034
    C   C140  0.971232  0.488568  0.914489  -0.067010
    C   C141  0.511432  0.028768  0.085511  -0.067040
    C   C142  0.028768  0.488568  0.085511  -0.067045
    C   C143  0.488568  0.971232  0.085511  -0.066974
    C   C144  0.971232  0.511432  0.085511  -0.067043
    H   H49   0.020661  0.448476  0.423944  0.131799
    H   H50   0.551524  0.020661  0.423944  0.131802
    H   H51   0.979339  0.551524  0.423944  0.131798
    H   H52   0.448476  0.979339  0.423944  0.131799
    H   H53   0.020661  0.551524  0.576056  0.131791
    H   H54   0.551524  0.979339  0.576056  0.131799
    H   H55   0.979339  0.448476  0.576056  0.131793
    H   H56   0.448476  0.020661  0.576056  0.131791
    H   H57   0.520661  0.948476  0.923944  0.131795
    H   H58   0.051524  0.520661  0.923944  0.131793
    H   H59   0.479339  0.051524  0.923944  0.131799
    H   H60   0.948476  0.479339  0.923944  0.131792
    H   H61   0.520661  0.051524  0.076056  0.131794
    H   H62   0.051524  0.479339  0.076056  0.131794
    H   H63   0.479339  0.948476  0.076056  0.131782
    H   H64   0.948476  0.520661  0.076056  0.131793
    C   C145  0.000000  0.500000  0.427181  -0.008722
    C   C146  0.500000  0.000000  0.427181  -0.008729
    C   C147  0.000000  0.500000  0.572819  -0.008622
    C   C148  0.500000  0.000000  0.572819  -0.008580
    C   C149  0.500000  0.000000  0.927181  -0.008763
    C   C150  0.000000  0.500000  0.927181  -0.008792
    C   C151  0.500000  0.000000  0.072819  -0.008780
    C   C152  0.000000  0.500000  0.072819  -0.008758
    C   C153  0.000000  0.500000  0.376759  0.214495
    C   C154  0.500000  0.000000  0.376759  0.214494
    C   C155  0.000000  0.500000  0.623241  0.214321
    C   C156  0.500000  0.000000  0.623241  0.214305
    C   C157  0.500000  0.000000  0.876759  0.214499
    C   C158  0.000000  0.500000  0.876759  0.214533
    C   C159  0.500000  0.000000  0.123241  0.214527
    C   C160  0.000000  0.500000  0.123241  0.214504
    C   C161  0.377506  0.518767  0.517605  -0.122276
    C   C162  0.481233  0.377506  0.517605  -0.122394
    C   C163  0.622494  0.481233  0.517605  -0.122401
    C   C164  0.518767  0.622494  0.517605  -0.122390
    C   C165  0.377506  0.481233  0.482395  -0.122308
    C   C166  0.481233  0.622494  0.482395  -0.122591
    C   C167  0.622494  0.518767  0.482395  -0.122574
    C   C168  0.518767  0.377506  0.482395  -0.122562
    C   C169  0.877506  0.018767  0.017605  -0.122294
    C   C170  0.981233  0.877506  0.017605  -0.122410
    C   C171  0.122494  0.981234  0.017605  -0.122411
    C   C172  0.018767  0.122494  0.017605  -0.122392
    C   C173  0.877506  0.981233  0.982395  -0.122309
    C   C174  0.981233  0.122494  0.982395  -0.122585
    C   C175  0.122494  0.018767  0.982395  -0.122597
    C   C176  0.018767  0.877506  0.982395  -0.122576
    C   C177  0.341614  0.518084  0.517550  -0.135992
    C   C178  0.481916  0.341614  0.517550  -0.135936
    C   C179  0.658386  0.481916  0.517550  -0.135941
    C   C180  0.518084  0.658386  0.517550  -0.135924
    C   C181  0.341614  0.481916  0.482450  -0.135978
    C   C182  0.481916  0.658386  0.482450  -0.135655
    C   C183  0.658386  0.518084  0.482450  -0.135662
    C   C184  0.518084  0.341614  0.482450  -0.135662
    C   C185  0.841614  0.018084  0.017550  -0.136013
    C   C186  0.981916  0.841614  0.017550  -0.135947
    C   C187  0.158386  0.981916  0.017550  -0.135937
    C   C188  0.018084  0.158386  0.017550  -0.135941
    C   C189  0.841614  0.981916  0.982450  -0.135976
    C   C190  0.981916  0.158386  0.982450  -0.135646
    C   C191  0.158386  0.018084  0.982450  -0.135665
    C   C192  0.018084  0.841614  0.982450  -0.135658
    H   H65   0.326862  0.532400  0.530871  0.134343
    H   H66   0.467600  0.326862  0.530871  0.134346
    H   H67   0.673138  0.467599  0.530871  0.134349
    H   H68   0.532401  0.673138  0.530871  0.134348
    H   H69   0.326862  0.467600  0.469129  0.134334
    H   H70   0.467599  0.673138  0.469129  0.134268
    H   H71   0.673138  0.532400  0.469129  0.134273
    H   H72   0.532400  0.326862  0.469129  0.134272
    H   H73   0.826862  0.032401  0.030871  0.134347
    H   H74   0.967600  0.826862  0.030871  0.134348
    H   H75   0.173138  0.967600  0.030871  0.134346
    H   H76   0.032400  0.173138  0.030871  0.134351
    H   H77   0.826862  0.967599  0.969129  0.134330
    H   H78   0.967600  0.173138  0.969129  0.134264
    H   H79   0.173138  0.032401  0.969129  0.134269
    H   H80   0.032401  0.826862  0.969129  0.134267
    C   C193  0.323749  0.500000  0.500000  0.077272
    C   C194  0.500000  0.323749  0.500000  0.077142
    C   C195  0.676251  0.500000  0.500000  0.077147
    C   C196  0.500000  0.676251  0.500000  0.077134
    C   C197  0.823749  0.000000  0.000000  0.077323
    C   C198  0.000000  0.823749  0.000000  0.077175
    C   C199  0.176251  0.000000  0.000000  0.077153
    C   C200  0.000000  0.176251  0.000000  0.077151
    C   C201  0.500000  0.565940  0.500000  0.723866
    C   C202  0.434060  0.500000  0.500000  0.723934
    C   C203  0.500000  0.434060  0.500000  0.723909
    C   C204  0.565940  0.500000  0.500000  0.723872
    C   C205  0.000000  0.065940  0.000000  0.723839
    C   C206  0.934060  0.000000  0.000000  0.723877
    C   C207  0.000000  0.934060  0.000000  0.723846
    C   C208  0.065940  0.000000  0.000000  0.723832
    C   C209  0.395818  0.500000  0.500000  0.031987
    C   C210  0.500000  0.395818  0.500000  0.032142
    C   C211  0.604182  0.500000  0.500000  0.032144
    C   C212  0.500000  0.604182  0.500000  0.032147
    C   C213  0.895818  0.000000  0.000000  0.031992
    C   C214  0.000000  0.895818  0.000000  0.032153
    C   C215  0.104182  0.000000  0.000000  0.032177
    C   C216  0.000000  0.104182  0.000000  0.032156
    C   C217  0.267686  0.505555  0.478656  -0.126539
    C   C218  0.494445  0.267686  0.478656  -0.126547
    C   C219  0.732314  0.494445  0.478656  -0.126525
    C   C220  0.505555  0.732314  0.478656  -0.126482
    C   C221  0.267686  0.494445  0.521344  -0.126552
    C   C222  0.494445  0.732314  0.521344  -0.126453
    C   C223  0.732314  0.505555  0.521344  -0.126568
    C   C224  0.505555  0.267686  0.521344  -0.126593
    C   C225  0.767686  0.005555  0.978656  -0.126474
    C   C226  0.994445  0.767686  0.978656  -0.126476
    C   C227  0.232314  0.994445  0.978656  -0.126519
    C   C228  0.005555  0.232314  0.978656  -0.126476
    C   C229  0.767686  0.994445  0.021344  -0.126566
    C   C230  0.994445  0.232314  0.021344  -0.126593
    C   C231  0.232314  0.005555  0.021344  -0.126567
    C   C232  0.005555  0.767686  0.021344  -0.126591
    H   H81   0.281372  0.510666  0.461862  0.124071
    H   H82   0.489334  0.281372  0.461862  0.124054
    H   H83   0.718628  0.489334  0.461862  0.124050
    H   H84   0.510666  0.718628  0.461862  0.124041
    H   H85   0.281372  0.489334  0.538138  0.124083
    H   H86   0.489334  0.718628  0.538138  0.124052
    H   H87   0.718628  0.510666  0.538138  0.124080
    H   H88   0.510666  0.281372  0.538138  0.124084
    H   H89   0.781372  0.010666  0.961862  0.124031
    H   H90   0.989334  0.781372  0.961862  0.124014
    H   H91   0.218628  0.989334  0.961862  0.124046
    H   H92   0.010666  0.218628  0.961862  0.124015
    H   H93   0.781372  0.989334  0.038138  0.124075
    H   H94   0.989334  0.218628  0.038138  0.124082
    H   H95   0.218628  0.010666  0.038138  0.124075
    H   H96   0.010666  0.781372  0.038138  0.124081
    C   C233  0.231961  0.505803  0.478672  -0.133972
    C   C234  0.494197  0.231961  0.478672  -0.133952
    C   C235  0.768039  0.494197  0.478672  -0.133965
    C   C236  0.505803  0.768039  0.478672  -0.134028
    C   C237  0.231961  0.494197  0.521328  -0.133980
    C   C238  0.494197  0.768039  0.521328  -0.134192
    C   C239  0.768039  0.505803  0.521328  -0.133968
    C   C240  0.505803  0.231961  0.521328  -0.133953
    C   C241  0.731961  0.005803  0.978672  -0.133990
    C   C242  0.994197  0.731961  0.978672  -0.133970
    C   C243  0.268039  0.994197  0.978672  -0.133959
    C   C244  0.005803  0.268039  0.978672  -0.133977
    C   C245  0.731961  0.994197  0.021328  -0.133959
    C   C246  0.994197  0.268039  0.021328  -0.133948
    C   C247  0.268039  0.005803  0.021328  -0.133965
    C   C248  0.005803  0.731961  0.021328  -0.133949
    H   H97   0.218552  0.511367  0.461849  0.124764
    H   H98   0.488634  0.218552  0.461849  0.124763
    H   H99   0.781448  0.488633  0.461849  0.124765
    H   H100  0.511367  0.781448  0.461849  0.124778
    H   H101  0.218552  0.488633  0.538151  0.124768
    H   H102  0.488634  0.781448  0.538151  0.124859
    H   H103  0.781448  0.511367  0.538151  0.124771
    H   H104  0.511367  0.218552  0.538151  0.124766
    H   H105  0.718552  0.011366  0.961849  0.124771
    H   H106  0.988633  0.718552  0.961849  0.124770
    H   H107  0.281448  0.988633  0.961849  0.124762
    H   H108  0.011367  0.281448  0.961849  0.124772
    H   H109  0.718552  0.988633  0.038151  0.124762
    H   H110  0.988633  0.281448  0.038151  0.124762
    H   H111  0.281448  0.011367  0.038151  0.124765
    H   H112  0.011366  0.718552  0.038151  0.124765
    C   C249  0.213761  0.500000  0.500000  0.051330
    C   C250  0.500000  0.213761  0.500000  0.051356
    C   C251  0.786239  0.500000  0.500000  0.051318
    C   C252  0.500000  0.786239  0.500000  0.051467
    C   C253  0.713761  0.000000  0.000000  0.051331
    C   C254  0.000000  0.713761  0.000000  0.051307
    C   C255  0.286239  0.000000  0.000000  0.051314
    C   C256  0.000000  0.286239  0.000000  0.051309
    C   C257  0.285749  0.500000  0.500000  0.047210
    C   C258  0.500000  0.285749  0.500000  0.047250
    C   C259  0.714251  0.500000  0.500000  0.047219
    C   C260  0.500000  0.714251  0.500000  0.047178
    C   C261  0.785749  0.000000  0.000000  0.047187
    C   C262  0.000000  0.785749  0.000000  0.047216
    C   C263  0.214251  0.000000  0.000000  0.047226
    C   C264  0.000000  0.214251  0.000000  0.047222
    C   C265  0.157565  0.514133  0.519312  -0.161223
    C   C266  0.485867  0.157565  0.519312  -0.160987
    C   C267  0.842435  0.485867  0.519312  -0.161222
    C   C268  0.514133  0.842435  0.519312  -0.161215
    C   C269  0.157565  0.485867  0.480688  -0.161207
    C   C270  0.485867  0.842435  0.480688  -0.161190
    C   C271  0.842435  0.514133  0.480688  -0.161196
    C   C272  0.514133  0.157565  0.480688  -0.160996
    C   C273  0.657565  0.014133  0.019312  -0.161207
    C   C274  0.985867  0.657565  0.019312  -0.161216
    C   C275  0.342435  0.985867  0.019312  -0.161206
    C   C276  0.014133  0.342435  0.019312  -0.161216
    C   C277  0.657565  0.985867  0.980688  -0.161206
    C   C278  0.985867  0.342435  0.980688  -0.161209
    C   C279  0.342435  0.014133  0.980688  -0.161214
    C   C280  0.014133  0.657565  0.980688  -0.161210
    H   H113  0.171903  0.525927  0.533994  0.148994
    H   H114  0.474073  0.171903  0.533994  0.148958
    H   H115  0.828097  0.474073  0.533994  0.148993
    H   H116  0.525927  0.828097  0.533994  0.148993
    H   H117  0.171903  0.474073  0.466006  0.148998
    H   H118  0.474073  0.828097  0.466006  0.148987
    H   H119  0.828097  0.525927  0.466006  0.148980
    H   H120  0.525927  0.171903  0.466006  0.148952
    H   H121  0.671903  0.025927  0.033994  0.148987
    H   H122  0.974073  0.671903  0.033994  0.148992
    H   H123  0.328097  0.974073  0.033994  0.148988
    H   H124  0.025927  0.328097  0.033994  0.148991
    H   H125  0.671903  0.974073  0.966006  0.148997
    H   H126  0.974073  0.328097  0.966006  0.148994
    H   H127  0.328097  0.025927  0.966006  0.148995
    H   H128  0.025927  0.671903  0.966006  0.148994
    C   C281  0.121683  0.513972  0.519593  -0.018269
    C   C282  0.486028  0.121683  0.519593  -0.018633
    C   C283  0.878317  0.486028  0.519593  -0.018267
    C   C284  0.513972  0.878317  0.519593  -0.018265
    C   C285  0.121683  0.486028  0.480407  -0.018330
    C   C286  0.486028  0.878317  0.480407  -0.018304
    C   C287  0.878317  0.513972  0.480407  -0.018304
    C   C288  0.513972  0.121683  0.480407  -0.018627
    C   C289  0.621683  0.013972  0.019593  -0.018327
    C   C290  0.986028  0.621683  0.019593  -0.018311
    C   C291  0.378317  0.986028  0.019593  -0.018317
    C   C292  0.013972  0.378317  0.019593  -0.018311
    C   C293  0.621683  0.986028  0.980407  -0.018350
    C   C294  0.986028  0.378317  0.980407  -0.018340
    C   C295  0.378317  0.013972  0.980407  -0.018342
    C   C296  0.013972  0.621683  0.980407  -0.018339
    C   C297  0.103648  0.500000  0.500000  -0.188174
    C   C298  0.500000  0.103648  0.500000  -0.187844
    C   C299  0.896352  0.500000  0.500000  -0.188200
    C   C300  0.500000  0.896352  0.500000  -0.188240
    C   C301  0.603648  0.000000  0.000000  -0.188096
    C   C302  0.000000  0.603648  0.000000  -0.188127
    C   C303  0.396352  0.000000  0.000000  -0.188108
    C   C304  0.000000  0.396352  0.000000  -0.188131
    C   C305  0.175597  0.500000  0.500000  0.073735
    C   C306  0.500000  0.175597  0.500000  0.073555
    C   C307  0.824403  0.500000  0.500000  0.073741
    C   C308  0.500000  0.824403  0.500000  0.073672
    C   C309  0.675597  0.000000  0.000000  0.073744
    C   C310  0.000000  0.675597  0.000000  0.073754
    C   C311  0.324403  0.000000  0.000000  0.073755
    C   C312  0.000000  0.324403  0.000000  0.073754
    Cu  Cu9   0.500000  0.500000  0.476262  0.949616
    Cu  Cu10  0.500000  0.500000  0.523738  0.949624
    Cu  Cu11  0.000000  0.000000  0.976262  0.949576
    Cu  Cu12  0.000000  0.000000  0.023738  0.949585
    O   O49   0.509641  0.549532  0.479998  -0.556346
    O   O50   0.450468  0.509641  0.479998  -0.556356
    O   O51   0.490359  0.450468  0.479998  -0.556363
    O   O52   0.549532  0.490359  0.479998  -0.556367
    O   O53   0.509641  0.450468  0.520002  -0.556377
    O   O54   0.450468  0.490359  0.520002  -0.556393
    O   O55   0.490359  0.549532  0.520002  -0.556394
    O   O56   0.549532  0.509641  0.520002  -0.556371
    O   O57   0.009641  0.049532  0.979998  -0.556307
    O   O58   0.950469  0.009641  0.979998  -0.556327
    O   O59   0.990359  0.950469  0.979998  -0.556311
    O   O60   0.049532  0.990359  0.979998  -0.556309
    O   O61   0.009641  0.950469  0.020002  -0.556379
    O   O62   0.950469  0.990359  0.020002  -0.556389
    O   O63   0.990359  0.049532  0.020002  -0.556381
    O   O64   0.049532  0.009641  0.020002  -0.556404
    C   C313  0.102591  0.528431  0.541149  0.661926
    F   F1    0.125474  0.539754  0.558794  -0.235669
    F   F2    0.081867  0.502998  0.551256  -0.227674
    F   F3    0.082376  0.556206  0.534016  -0.222325
    C   C314  0.471569  0.102591  0.541149  0.662027
    F   F4    0.460246  0.125474  0.558794  -0.235671
    F   F5    0.497002  0.081867  0.551256  -0.227729
    F   F6    0.443794  0.082376  0.534016  -0.222342
    C   C315  0.897409  0.471569  0.541149  0.661915
    F   F7    0.874526  0.460246  0.558794  -0.235665
    F   F8    0.918133  0.497002  0.551256  -0.227674
    F   F9    0.917624  0.443794  0.534016  -0.222325
    C   C316  0.528431  0.897409  0.541149  0.661912
    F   F10   0.539754  0.874526  0.558794  -0.235673
    F   F11   0.502998  0.918133  0.551256  -0.227672
    F   F12   0.556206  0.917624  0.534016  -0.222318
    C   C317  0.102591  0.471569  0.458851  0.661977
    F   F13   0.125474  0.460246  0.441206  -0.235689
    F   F14   0.081867  0.497002  0.448744  -0.227676
    F   F15   0.082376  0.443794  0.465984  -0.222332
    C   C318  0.471569  0.897409  0.458851  0.661960
    F   F16   0.460246  0.874526  0.441206  -0.235685
    F   F17   0.497002  0.918133  0.448744  -0.227686
    F   F18   0.443794  0.917624  0.465984  -0.222334
    C   C319  0.897409  0.528431  0.458851  0.661894
    F   F19   0.874526  0.539754  0.441206  -0.235647
    F   F20   0.918133  0.502998  0.448744  -0.227666
    F   F21   0.917624  0.556206  0.465984  -0.222322
    C   C320  0.528431  0.102591  0.458851  0.661991
    F   F22   0.539754  0.125474  0.441206  -0.235649
    F   F23   0.502998  0.081867  0.448744  -0.227702
    F   F24   0.556206  0.082376  0.465984  -0.222360
    C   C321  0.602591  0.028431  0.041149  0.661961
    F   F25   0.625474  0.039754  0.058794  -0.235669
    F   F26   0.581867  0.002998  0.051256  -0.227669
    F   F27   0.582376  0.056206  0.034016  -0.222336
    C   C322  0.971569  0.602591  0.041149  0.661950
    F   F28   0.960246  0.625474  0.058794  -0.235669
    F   F29   0.997002  0.581867  0.051256  -0.227675
    F   F30   0.943794  0.582376  0.034016  -0.222334
    C   C323  0.397409  0.971569  0.041149  0.661944
    F   F31   0.374526  0.960246  0.058794  -0.235666
    F   F32   0.418133  0.997002  0.051256  -0.227678
    F   F33   0.417624  0.943794  0.034016  -0.222333
    C   C324  0.028431  0.397409  0.041149  0.661947
    F   F34   0.039754  0.374526  0.058794  -0.235668
    F   F35   0.002998  0.418133  0.051256  -0.227674
    F   F36   0.056206  0.417624  0.034016  -0.222333
    C   C325  0.602591  0.971569  0.958851  0.662007
    F   F37   0.625474  0.960246  0.941206  -0.235697
    F   F38   0.581867  0.997002  0.948744  -0.227674
    F   F39   0.582376  0.943794  0.965984  -0.222338
    C   C326  0.971569  0.397409  0.958851  0.661991
    F   F40   0.960246  0.374526  0.941206  -0.235692
    F   F41   0.997002  0.418133  0.948744  -0.227675
    F   F42   0.943794  0.417624  0.965984  -0.222336
    C   C327  0.397409  0.028431  0.958851  0.662001
    F   F43   0.374526  0.039754  0.941206  -0.235696
    F   F44   0.418133  0.002998  0.948744  -0.227676
    F   F45   0.417624  0.056206  0.965984  -0.222339
    C   C328  0.028431  0.602591  0.958851  0.661994
    F   F46   0.039754  0.625474  0.941206  -0.235693
    F   F47   0.002998  0.581867  0.948744  -0.227674
    F   F48   0.056206  0.582376  0.965984  -0.222338
    C   C329  0.395685  0.541020  0.536136  0.737363
    F   F49   0.419102  0.562672  0.524711  -0.253103
    F   F50   0.412620  0.520456  0.552958  -0.245541
    F   F51   0.372227  0.561545  0.548525  -0.235454
    C   C330  0.458980  0.395685  0.536136  0.737470
    F   F52   0.437328  0.419102  0.524711  -0.253164
    F   F53   0.479544  0.412620  0.552958  -0.245566
    F   F54   0.438455  0.372227  0.548525  -0.235465
    C   C331  0.604315  0.458980  0.536136  0.737489
    F   F55   0.580898  0.437328  0.524711  -0.253175
    F   F56   0.587380  0.479544  0.552958  -0.245565
    F   F57   0.627773  0.438455  0.548525  -0.235470
    C   C332  0.541020  0.604315  0.536136  0.737422
    F   F58   0.562672  0.580898  0.524711  -0.253127
    F   F59   0.520456  0.587380  0.552958  -0.245548
    F   F60   0.561545  0.627773  0.548525  -0.235464
    C   C333  0.395685  0.458980  0.463864  0.737453
    F   F61   0.419102  0.437328  0.475289  -0.253163
    F   F62   0.412620  0.479544  0.447042  -0.245564
    F   F63   0.372227  0.438455  0.451475  -0.235462
    C   C334  0.458980  0.604315  0.463864  0.737502
    F   F64   0.437328  0.580898  0.475289  -0.253170
    F   F65   0.479544  0.587380  0.447042  -0.245556
    F   F66   0.438455  0.627773  0.451475  -0.235472
    C   C335  0.604315  0.541020  0.463864  0.737446
    F   F67   0.580898  0.562672  0.475289  -0.253124
    F   F68   0.587380  0.520456  0.447042  -0.245543
    F   F69   0.627773  0.561545  0.451475  -0.235469
    C   C336  0.541020  0.395685  0.463864  0.737421
    F   F70   0.562672  0.419102  0.475289  -0.253110
    F   F71   0.520456  0.412620  0.447042  -0.245543
    F   F72   0.561545  0.372227  0.451475  -0.235464
    C   C337  0.895685  0.041020  0.036136  0.737418
    F   F73   0.919102  0.062672  0.024711  -0.253144
    F   F74   0.912620  0.020456  0.052958  -0.245550
    F   F75   0.872227  0.061546  0.048525  -0.235466
    C   C338  0.958980  0.895685  0.036136  0.737482
    F   F76   0.937328  0.919102  0.024711  -0.253165
    F   F77   0.979544  0.912620  0.052958  -0.245565
    F   F78   0.938455  0.872227  0.048525  -0.235467
    C   C339  0.104315  0.958980  0.036136  0.737470
    F   F79   0.080898  0.937328  0.024711  -0.253160
    F   F80   0.087380  0.979544  0.052958  -0.245559
    F   F81   0.127773  0.938455  0.048525  -0.235467
    C   C340  0.041020  0.104315  0.036136  0.737409
    F   F82   0.062672  0.080898  0.024711  -0.253114
    F   F83   0.020456  0.087380  0.052958  -0.245548
    F   F84   0.061545  0.127773  0.048525  -0.235463
    C   C341  0.895685  0.958980  0.963864  0.737436
    F   F85   0.919102  0.937328  0.975289  -0.253160
    F   F86   0.912620  0.979544  0.947042  -0.245556
    F   F87   0.872227  0.938455  0.951475  -0.235456
    C   C342  0.958980  0.104315  0.963864  0.737466
    F   F88   0.937328  0.080898  0.975289  -0.253152
    F   F89   0.979544  0.087380  0.947042  -0.245548
    F   F90   0.938455  0.127773  0.951475  -0.235466
    C   C343  0.104315  0.041020  0.963864  0.737490
    F   F91   0.080898  0.062672  0.975289  -0.253168
    F   F92   0.087380  0.020456  0.947042  -0.245555
    F   F93   0.127773  0.061545  0.951475  -0.235468
    C   C344  0.041020  0.895685  0.963864  0.737456
    F   F94   0.062672  0.919102  0.975289  -0.253147
    F   F95   0.020456  0.912620  0.947042  -0.245543
    F   F96   0.061546  0.872227  0.951475  -0.235471
