# Generated by REPEAT Assigner based on pymatgen
data_DB0-m2_o1_o15_f0_nbo.sym.88
_audit_creation_date              2022-05-24
_audit_creation_method            REPEAT_Assigner
_cell_length_a                    21.520795
_cell_length_b                    30.450057
_cell_length_c                    30.284415
_cell_angle_alpha                 90.000000
_cell_angle_beta                  90.000000
_cell_angle_gamma                 90.000000
_cell_volume                      19845.662403
_symmetry_space_group_name_H-M    P1
_symmetry_Int_Tables_number       1
loop_
    _symmetry_equiv_pos_site_id
    _symmetry_equiv_pos_as_xyz
    1  x,y,z
loop_
    _atom_site_type_symbol
    _atom_site_label
    _atom_site_fract_x
    _atom_site_fract_y
    _atom_site_fract_z
    _atom_type_partial_charge
    O   O1    0.215756  0.569136  0.020378  -0.627969
    O   O2    0.752122  0.430406  0.018709  -0.610335
    O   O3    0.215756  0.430864  0.979622  -0.627962
    O   O4    0.752122  0.569594  0.981291  -0.610359
    O   O5    0.715756  0.069136  0.020378  -0.627972
    O   O6    0.252122  0.930406  0.018709  -0.610358
    O   O7    0.715756  0.930864  0.979622  -0.627968
    O   O8    0.252122  0.069594  0.981291  -0.610356
    O   O9    0.715757  0.569136  0.520378  -0.627962
    O   O10   0.252122  0.430406  0.518709  -0.610350
    O   O11   0.715757  0.430864  0.479622  -0.627963
    O   O12   0.252122  0.569594  0.481291  -0.610350
    O   O13   0.215757  0.069136  0.520378  -0.627971
    O   O14   0.752122  0.930406  0.518709  -0.610349
    O   O15   0.215757  0.930864  0.479622  -0.627971
    O   O16   0.752122  0.069594  0.481291  -0.610356
    O   O17   0.253027  0.517153  0.070315  -0.573242
    O   O18   0.715671  0.481174  0.070073  -0.570107
    O   O19   0.253027  0.482847  0.929685  -0.573240
    O   O20   0.715671  0.518826  0.929927  -0.570103
    O   O21   0.753027  0.017153  0.070315  -0.573286
    O   O22   0.215671  0.981174  0.070073  -0.570093
    O   O23   0.753027  0.982847  0.929685  -0.573279
    O   O24   0.215671  0.018826  0.929927  -0.570109
    O   O25   0.753027  0.517153  0.570315  -0.573294
    O   O26   0.215671  0.481174  0.570073  -0.570091
    O   O27   0.753027  0.482847  0.429685  -0.573279
    O   O28   0.215671  0.518826  0.429927  -0.570112
    O   O29   0.253027  0.017153  0.570315  -0.573256
    O   O30   0.715671  0.981174  0.570073  -0.570096
    O   O31   0.253027  0.982847  0.429685  -0.573245
    O   O32   0.715671  0.018826  0.429927  -0.570105
    C   C1    0.234507  0.557318  0.060186  0.728392
    C   C2    0.734633  0.441342  0.059065  0.657501
    C   C3    0.234507  0.442682  0.939814  0.728376
    C   C4    0.734633  0.558658  0.940935  0.657517
    C   C5    0.734507  0.057318  0.060186  0.728824
    C   C6    0.234633  0.941342  0.059065  0.657476
    C   C7    0.734507  0.942682  0.939814  0.728795
    C   C8    0.234633  0.058658  0.940935  0.657508
    C   C9    0.734507  0.557318  0.560186  0.728824
    C   C10   0.234633  0.441342  0.559065  0.657476
    C   C11   0.734507  0.442682  0.439814  0.728807
    C   C12   0.234633  0.558658  0.440935  0.657479
    C   C13   0.234507  0.057318  0.560186  0.728404
    C   C14   0.734633  0.941342  0.559065  0.657485
    C   C15   0.234507  0.942682  0.439814  0.728376
    C   C16   0.734633  0.058658  0.440935  0.657518
    O   O33   0.146016  0.516946  0.965466  -0.624599
    O   O34   0.822241  0.483692  0.965196  -0.617418
    O   O35   0.146016  0.483054  0.034534  -0.624597
    O   O36   0.822241  0.516308  0.034804  -0.617437
    O   O37   0.646016  0.016946  0.965466  -0.624576
    O   O38   0.322241  0.983692  0.965196  -0.617469
    O   O39   0.646016  0.983054  0.034534  -0.624587
    O   O40   0.322241  0.016308  0.034804  -0.617451
    O   O41   0.646016  0.516946  0.465466  -0.624559
    O   O42   0.322242  0.483692  0.465196  -0.617434
    O   O43   0.646016  0.483054  0.534534  -0.624567
    O   O44   0.322242  0.516308  0.534804  -0.617428
    O   O45   0.146016  0.016946  0.465466  -0.624607
    O   O46   0.822242  0.983692  0.465196  -0.617452
    O   O47   0.146016  0.983054  0.534534  -0.624620
    O   O48   0.822242  0.016308  0.534804  -0.617444
    C   C17   0.116874  0.500000  0.000000  0.861672
    C   C18   0.851399  0.500000  0.000000  0.888846
    C   C19   0.616874  0.000000  0.000000  0.861330
    C   C20   0.351399  0.000000  0.000000  0.888937
    C   C21   0.616874  0.500000  0.500000  0.861272
    C   C22   0.351399  0.500000  0.500000  0.888904
    C   C23   0.116874  0.000000  0.500000  0.861688
    C   C24   0.851399  0.000000  0.500000  0.888888
    Cu  Cu1   0.234358  0.530891  0.970320  0.952592
    Cu  Cu2   0.733819  0.469827  0.969527  0.932219
    Cu  Cu3   0.234358  0.469109  0.029680  0.952640
    Cu  Cu4   0.733819  0.530173  0.030473  0.932128
    Cu  Cu5   0.734358  0.030891  0.970320  0.952593
    Cu  Cu6   0.233819  0.969827  0.969527  0.932201
    Cu  Cu7   0.734358  0.969109  0.029680  0.952592
    Cu  Cu8   0.233819  0.030173  0.030473  0.932190
    Cu  Cu9   0.734358  0.530891  0.470320  0.952580
    Cu  Cu10  0.233819  0.469827  0.469527  0.932151
    Cu  Cu11  0.734358  0.469109  0.529680  0.952575
    Cu  Cu12  0.233819  0.530173  0.530473  0.932170
    Cu  Cu13  0.234358  0.030891  0.470320  0.952641
    Cu  Cu14  0.733819  0.969827  0.469527  0.932201
    Cu  Cu15  0.234358  0.969109  0.529680  0.952626
    Cu  Cu16  0.733819  0.030173  0.530473  0.932165
    O   O49   0.322681  0.535067  0.984604  -0.617519
    O   O50   0.645406  0.465477  0.983469  -0.565980
    O   O51   0.322681  0.464933  0.015396  -0.617518
    O   O52   0.645406  0.534523  0.016531  -0.565994
    O   O53   0.822681  0.035067  0.984604  -0.617486
    O   O54   0.145406  0.965477  0.983469  -0.566042
    O   O55   0.822681  0.964933  0.015396  -0.617507
    O   O56   0.145406  0.034523  0.016531  -0.565991
    O   O57   0.822681  0.535067  0.484604  -0.617474
    O   O58   0.145406  0.465477  0.483469  -0.565979
    O   O59   0.822681  0.464933  0.515396  -0.617488
    O   O60   0.145406  0.534523  0.516531  -0.565949
    O   O61   0.322681  0.035067  0.484604  -0.617516
    O   O62   0.645406  0.965477  0.483469  -0.566034
    O   O63   0.322681  0.964933  0.515396  -0.617535
    O   O64   0.645406  0.034523  0.516531  -0.565995
    C   C25   0.351775  0.500000  0.000000  0.721999
    C   C26   0.616262  0.500000  0.000000  0.689028
    C   C27   0.851775  0.000000  0.000000  0.721743
    C   C28   0.116262  0.000000  0.000000  0.689031
    C   C29   0.851775  0.500000  0.500000  0.721728
    C   C30   0.116262  0.500000  0.500000  0.689008
    C   C31   0.351775  0.000000  0.500000  0.722013
    C   C32   0.616262  0.000000  0.500000  0.689023
    H   H1    0.041026  0.649186  0.004811  0.093963
    H   H2    0.927311  0.350729  0.000284  0.107155
    H   H3    0.041026  0.350814  0.995189  0.093968
    H   H4    0.927311  0.649271  0.999716  0.107151
    H   H5    0.541026  0.149186  0.004811  0.093986
    H   H6    0.427311  0.850729  0.000284  0.107153
    H   H7    0.541026  0.850814  0.995189  0.093988
    H   H8    0.427311  0.149271  0.999716  0.107150
    H   H9    0.541027  0.649186  0.504811  0.093983
    H   H10   0.427311  0.350729  0.500284  0.107151
    H   H11   0.541027  0.350814  0.495189  0.093988
    H   H12   0.427311  0.649271  0.499716  0.107146
    H   H13   0.041027  0.149186  0.504811  0.093967
    H   H14   0.927311  0.850729  0.500284  0.107158
    H   H15   0.041027  0.850814  0.495189  0.093969
    H   H16   0.927311  0.149271  0.499716  0.107154
    C   C33   0.047835  0.420602  0.996635  -0.267159
    C   C34   0.920482  0.579474  0.999057  -0.296009
    C   C35   0.047835  0.579398  0.003365  -0.267160
    C   C36   0.920482  0.420526  0.000943  -0.296000
    C   C37   0.547835  0.920602  0.996635  -0.266985
    C   C38   0.420482  0.079474  0.999057  -0.296030
    C   C39   0.547835  0.079398  0.003365  -0.266993
    C   C40   0.420482  0.920526  0.000943  -0.296025
    C   C41   0.547835  0.420602  0.496635  -0.266973
    C   C42   0.420482  0.579474  0.499057  -0.296047
    C   C43   0.547835  0.579398  0.503365  -0.266976
    C   C44   0.420482  0.420526  0.500943  -0.296025
    C   C45   0.047835  0.920602  0.496635  -0.267142
    C   C46   0.920482  0.079474  0.499057  -0.295991
    C   C47   0.047835  0.079398  0.503365  -0.267148
    C   C48   0.920482  0.920526  0.500943  -0.295985
    C   C49   0.015936  0.381519  0.996844  -0.063860
    C   C50   0.952393  0.618527  0.000450  -0.082939
    C   C51   0.015936  0.618481  0.003156  -0.063854
    C   C52   0.952393  0.381473  0.999550  -0.082948
    C   C53   0.515936  0.881519  0.996844  -0.063953
    C   C54   0.452393  0.118527  0.000450  -0.082901
    C   C55   0.515936  0.118481  0.003156  -0.063950
    C   C56   0.452393  0.881473  0.999550  -0.082905
    C   C57   0.515936  0.381519  0.496844  -0.063959
    C   C58   0.452393  0.618527  0.500450  -0.082890
    C   C59   0.515936  0.618481  0.503156  -0.063956
    C   C60   0.452393  0.381473  0.499550  -0.082902
    C   C61   0.015936  0.881519  0.496844  -0.063866
    C   C62   0.952393  0.118527  0.500450  -0.082949
    C   C63   0.015936  0.118481  0.503156  -0.063863
    C   C64   0.952393  0.881473  0.499550  -0.082955
    C   C65   0.951945  0.460422  0.999782  0.265316
    C   C66   0.016350  0.539563  0.001004  0.216547
    C   C67   0.951945  0.539578  0.000218  0.265322
    C   C68   0.016350  0.460437  0.998996  0.216554
    C   C69   0.451945  0.960422  0.999782  0.265413
    C   C70   0.516350  0.039563  0.001004  0.216331
    C   C71   0.451945  0.039578  0.000218  0.265404
    C   C72   0.516350  0.960437  0.998996  0.216329
    C   C73   0.451945  0.460422  0.499782  0.265413
    C   C74   0.516350  0.539563  0.501004  0.216307
    C   C75   0.451945  0.539578  0.500218  0.265421
    C   C76   0.516350  0.460437  0.498996  0.216311
    C   C77   0.951945  0.960422  0.499782  0.265312
    C   C78   0.016350  0.039563  0.501004  0.216544
    C   C79   0.951945  0.039578  0.500218  0.265308
    C   C80   0.016350  0.960437  0.498996  0.216544
    C   C81   0.919609  0.500000  0.000000  -0.455998
    C   C82   0.048676  0.500000  0.000000  -0.398352
    C   C83   0.419609  0.000000  0.000000  -0.456094
    C   C84   0.548676  0.000000  0.000000  -0.397970
    C   C85   0.419609  0.500000  0.500000  -0.456091
    C   C86   0.548676  0.500000  0.500000  -0.397934
    C   C87   0.919609  0.000000  0.500000  -0.455996
    C   C88   0.048676  0.000000  0.500000  -0.398350
    H   H17   0.097633  0.418525  0.994338  0.176794
    H   H18   0.870689  0.581630  0.996809  0.182411
    H   H19   0.097633  0.581475  0.005662  0.176797
    H   H20   0.870690  0.418370  0.003191  0.182407
    H   H21   0.597633  0.918525  0.994338  0.176743
    H   H22   0.370690  0.081630  0.996809  0.182406
    H   H23   0.597633  0.081475  0.005662  0.176752
    H   H24   0.370689  0.918370  0.003191  0.182396
    H   H25   0.597633  0.418525  0.494338  0.176742
    H   H26   0.370690  0.581630  0.496809  0.182416
    H   H27   0.597633  0.581475  0.505662  0.176748
    H   H28   0.370690  0.418370  0.503191  0.182401
    H   H29   0.097633  0.918525  0.494338  0.176781
    H   H30   0.870690  0.081630  0.496809  0.182405
    H   H31   0.097633  0.081475  0.505662  0.176790
    H   H32   0.870690  0.918370  0.503191  0.182397
    C   C89   0.289060  0.594856  0.120258  -0.282297
    C   C90   0.697295  0.409416  0.128998  -0.337828
    C   C91   0.289060  0.405144  0.879742  -0.282277
    C   C92   0.697295  0.590584  0.871002  -0.337864
    C   C93   0.789060  0.094856  0.120258  -0.282594
    C   C94   0.197295  0.909416  0.128998  -0.337877
    C   C95   0.789060  0.905144  0.879742  -0.282591
    C   C96   0.197295  0.090584  0.871002  -0.337879
    C   C97   0.789060  0.594856  0.620258  -0.282598
    C   C98   0.197295  0.409416  0.628998  -0.337876
    C   C99   0.789060  0.405144  0.379742  -0.282589
    C   C100  0.197295  0.590584  0.371002  -0.337893
    C   C101  0.289060  0.094856  0.620258  -0.282285
    C   C102  0.697295  0.909416  0.628998  -0.337841
    C   C103  0.289060  0.905144  0.379742  -0.282272
    C   C104  0.697295  0.090584  0.371002  -0.337860
    H   H33   0.325957  0.571261  0.115580  0.134044
    H   H34   0.663476  0.435520  0.131706  0.149474
    H   H35   0.325957  0.428739  0.884420  0.134034
    H   H36   0.663476  0.564480  0.868294  0.149488
    H   H37   0.825957  0.071261  0.115580  0.134233
    H   H38   0.163476  0.935520  0.131706  0.149485
    H   H39   0.825957  0.928739  0.884420  0.134234
    H   H40   0.163476  0.064480  0.868294  0.149491
    H   H41   0.825957  0.571261  0.615580  0.134240
    H   H42   0.163476  0.435520  0.631706  0.149489
    H   H43   0.825957  0.428739  0.384420  0.134235
    H   H44   0.163476  0.564480  0.368294  0.149498
    H   H45   0.325957  0.071261  0.615580  0.134043
    H   H46   0.663476  0.935520  0.631706  0.149475
    H   H47   0.325957  0.928739  0.384420  0.134040
    H   H48   0.663476  0.064480  0.368294  0.149486
    C   C105  0.293828  0.628774  0.150690  0.491530
    C   C106  0.699466  0.377128  0.160907  0.434099
    C   C107  0.293828  0.371226  0.849310  0.491507
    C   C108  0.699466  0.622872  0.839093  0.434146
    C   C109  0.793828  0.128774  0.150690  0.491555
    C   C110  0.199466  0.877128  0.160907  0.434236
    C   C111  0.793828  0.871226  0.849310  0.491536
    C   C112  0.199466  0.122872  0.839093  0.434245
    C   C113  0.793828  0.628774  0.650690  0.491549
    C   C114  0.199466  0.377128  0.660907  0.434241
    C   C115  0.793828  0.371226  0.349310  0.491533
    C   C116  0.199466  0.622872  0.339093  0.434254
    C   C117  0.293828  0.128774  0.650690  0.491510
    C   C118  0.699466  0.877128  0.660907  0.434102
    C   C119  0.293828  0.871226  0.349310  0.491484
    C   C120  0.699466  0.122872  0.339093  0.434142
    C   C121  0.242945  0.655862  0.157701  -0.221332
    C   C122  0.742250  0.343491  0.157540  -0.149344
    C   C123  0.242945  0.344138  0.842299  -0.221324
    C   C124  0.742250  0.656509  0.842460  -0.149382
    C   C125  0.742945  0.155862  0.157701  -0.221645
    C   C126  0.242250  0.843491  0.157540  -0.149516
    C   C127  0.742945  0.844138  0.842299  -0.221644
    C   C128  0.242250  0.156509  0.842460  -0.149524
    C   C129  0.742945  0.655862  0.657701  -0.221653
    C   C130  0.242250  0.343491  0.657540  -0.149525
    C   C131  0.742945  0.344138  0.342299  -0.221641
    C   C132  0.242250  0.656509  0.342460  -0.149538
    C   C133  0.242945  0.155862  0.657701  -0.221323
    C   C134  0.742250  0.843491  0.657540  -0.149346
    C   C135  0.242945  0.844138  0.342299  -0.221321
    C   C136  0.742250  0.156509  0.342460  -0.149372
    C   C137  0.189887  0.650558  0.132637  -0.007761
    C   C138  0.783411  0.342519  0.122756  -0.115849
    C   C139  0.189887  0.349442  0.867363  -0.007771
    C   C140  0.783411  0.657481  0.877244  -0.115821
    C   C141  0.689887  0.150558  0.132637  -0.007778
    C   C142  0.283411  0.842519  0.122756  -0.115812
    C   C143  0.689887  0.849442  0.867363  -0.007777
    C   C144  0.283411  0.157481  0.877244  -0.115806
    C   C145  0.689887  0.650558  0.632637  -0.007766
    C   C146  0.283411  0.342519  0.622756  -0.115805
    C   C147  0.689887  0.349442  0.367363  -0.007774
    C   C148  0.283411  0.657481  0.377244  -0.115795
    C   C149  0.189887  0.150558  0.632637  -0.007763
    C   C150  0.783411  0.842519  0.622756  -0.115850
    C   C151  0.189887  0.849442  0.367363  -0.007763
    C   C152  0.783411  0.157481  0.377244  -0.115830
    H   H49   0.150402  0.671939  0.137525  0.100253
    H   H50   0.817046  0.316278  0.120222  0.132293
    H   H51   0.150402  0.328061  0.862475  0.100258
    H   H52   0.817046  0.683722  0.879778  0.132288
    H   H53   0.650402  0.171939  0.137525  0.100287
    H   H54   0.317046  0.816278  0.120222  0.132281
    H   H55   0.650402  0.828061  0.862475  0.100291
    H   H56   0.317046  0.183722  0.879778  0.132279
    H   H57   0.650402  0.671939  0.637525  0.100284
    H   H58   0.317046  0.316278  0.620222  0.132279
    H   H59   0.650402  0.328061  0.362475  0.100289
    H   H60   0.317046  0.683722  0.379778  0.132277
    H   H61   0.150402  0.171939  0.637525  0.100255
    H   H62   0.817046  0.816278  0.620222  0.132293
    H   H63   0.150402  0.828061  0.362475  0.100257
    H   H64   0.817046  0.183722  0.379778  0.132290
    C   C153  0.187657  0.619233  0.099956  -0.237872
    C   C154  0.780161  0.374073  0.090254  -0.188531
    C   C155  0.187657  0.380767  0.900044  -0.237875
    C   C156  0.780161  0.625927  0.909746  -0.188548
    C   C157  0.687657  0.119233  0.099956  -0.237686
    C   C158  0.280161  0.874073  0.090254  -0.188525
    C   C159  0.687657  0.880767  0.900044  -0.237705
    C   C160  0.280161  0.125927  0.909746  -0.188515
    C   C161  0.687657  0.619233  0.599956  -0.237689
    C   C162  0.280161  0.374073  0.590254  -0.188528
    C   C163  0.687657  0.380767  0.400044  -0.237700
    C   C164  0.280161  0.625927  0.409746  -0.188529
    C   C165  0.187657  0.119233  0.599956  -0.237869
    C   C166  0.780161  0.874073  0.590254  -0.188536
    C   C167  0.187657  0.880767  0.400044  -0.237884
    C   C168  0.780161  0.125927  0.409746  -0.188541
    H   H65   0.146465  0.616024  0.079794  0.136770
    H   H66   0.812198  0.372609  0.062823  0.146837
    H   H67   0.146465  0.383976  0.920206  0.136772
    H   H68   0.812198  0.627392  0.937177  0.146840
    H   H69   0.646465  0.116024  0.079794  0.136728
    H   H70   0.312198  0.872609  0.062823  0.146836
    H   H71   0.646465  0.883976  0.920206  0.136734
    H   H72   0.312198  0.127391  0.937177  0.146830
    H   H73   0.646465  0.616024  0.579794  0.136727
    H   H74   0.312198  0.372609  0.562823  0.146835
    H   H75   0.646465  0.383976  0.420206  0.136731
    H   H76   0.312198  0.627391  0.437177  0.146834
    H   H77   0.146465  0.116024  0.579794  0.136769
    H   H78   0.812198  0.872609  0.562823  0.146840
    H   H79   0.146465  0.883976  0.420206  0.136774
    H   H80   0.812198  0.127392  0.437177  0.146839
    C   C169  0.236818  0.590918  0.094340  0.036386
    C   C170  0.737234  0.407668  0.093353  0.073104
    C   C171  0.236818  0.409082  0.905660  0.036393
    C   C172  0.737234  0.592332  0.906647  0.073118
    C   C173  0.736818  0.090918  0.094340  0.036037
    C   C174  0.237234  0.907668  0.093353  0.073125
    C   C175  0.736818  0.909082  0.905660  0.036066
    C   C176  0.237234  0.092332  0.906647  0.073107
    C   C177  0.736818  0.590918  0.594340  0.036041
    C   C178  0.237234  0.407668  0.593353  0.073127
    C   C179  0.736818  0.409082  0.405660  0.036056
    C   C180  0.237234  0.592332  0.406647  0.073139
    C   C181  0.236818  0.090918  0.594340  0.036379
    C   C182  0.737234  0.907668  0.593353  0.073117
    C   C183  0.236818  0.909082  0.405660  0.036403
    C   C184  0.737234  0.092332  0.406647  0.073109
    C   C185  0.451911  0.460911  0.997084  -0.128489
    C   C186  0.515952  0.539040  0.003651  -0.030952
    C   C187  0.451911  0.539089  0.002916  -0.128490
    C   C188  0.515952  0.460960  0.996349  -0.030951
    C   C189  0.951911  0.960911  0.997084  -0.128469
    C   C190  0.015952  0.039040  0.003651  -0.030977
    C   C191  0.951911  0.039089  0.002916  -0.128533
    C   C192  0.015952  0.960960  0.996349  -0.031119
    C   C193  0.951912  0.460911  0.497084  -0.128560
    C   C194  0.015952  0.539040  0.503651  -0.030932
    C   C195  0.951912  0.539089  0.502916  -0.128583
    C   C196  0.015952  0.460960  0.496349  -0.030942
    C   C197  0.451912  0.960911  0.497084  -0.128377
    C   C198  0.515952  0.039040  0.503651  -0.030994
    C   C199  0.451912  0.039089  0.502916  -0.128438
    C   C200  0.515952  0.960960  0.496349  -0.031133
    H   H81   0.427332  0.430079  0.994352  0.119220
    H   H82   0.540337  0.569947  0.006311  0.099069
    H   H83   0.427332  0.569921  0.005648  0.119220
    H   H84   0.540337  0.430053  0.993689  0.099068
    H   H85   0.927332  0.930079  0.994352  0.119225
    H   H86   0.040337  0.069947  0.006311  0.099081
    H   H87   0.927332  0.069921  0.005648  0.119242
    H   H88   0.040337  0.930053  0.993689  0.099170
    H   H89   0.927332  0.430079  0.494352  0.119247
    H   H90   0.040338  0.569947  0.506311  0.099074
    H   H91   0.927332  0.569921  0.505648  0.119256
    H   H92   0.040338  0.430053  0.493689  0.099077
    H   H93   0.427332  0.930079  0.494352  0.119189
    H   H94   0.540338  0.069947  0.506311  0.099071
    H   H95   0.427332  0.069921  0.505648  0.119207
    H   H96   0.540338  0.930053  0.493689  0.099160
    C   C201  0.548256  0.500000  0.000000  -0.101952
    C   C202  0.419690  0.500000  0.000000  -0.016430
    C   C203  0.048256  0.000000  0.000000  -0.101882
    C   C204  0.919690  0.000000  0.000000  -0.016271
    C   C205  0.048256  0.500000  0.500000  -0.101967
    C   C206  0.919690  0.500000  0.500000  -0.016240
    C   C207  0.548256  0.000000  0.500000  -0.101849
    C   C208  0.419690  0.000000  0.500000  -0.016486
    O   O65   0.295202  0.302104  0.712844  -0.640434
    O   O66   0.692028  0.697306  0.713729  -0.541362
    O   O67   0.295202  0.697896  0.287156  -0.640427
    O   O68   0.692028  0.302694  0.286271  -0.541371
    O   O69   0.795202  0.802104  0.712844  -0.640441
    O   O70   0.192028  0.197306  0.713729  -0.541235
    O   O71   0.795202  0.197896  0.287156  -0.640439
    O   O72   0.192028  0.802694  0.286271  -0.541252
    O   O73   0.795202  0.302104  0.212844  -0.640442
    O   O74   0.192028  0.697306  0.213729  -0.541233
    O   O75   0.795202  0.697896  0.787156  -0.640432
    O   O76   0.192028  0.302694  0.786271  -0.541243
    O   O77   0.295202  0.802104  0.212844  -0.640434
    O   O78   0.692028  0.197306  0.213729  -0.541364
    O   O79   0.295202  0.197896  0.787156  -0.640429
    O   O80   0.692028  0.802694  0.786271  -0.541380
    O   O81   0.191958  0.286083  0.697036  -0.649845
    O   O82   0.795172  0.713051  0.697612  -0.593502
    O   O83   0.191958  0.713917  0.302964  -0.649832
    O   O84   0.795172  0.286949  0.302388  -0.593510
    O   O85   0.691958  0.786083  0.697036  -0.649887
    O   O86   0.295172  0.213051  0.697612  -0.593370
    O   O87   0.691958  0.213917  0.302964  -0.649870
    O   O88   0.295172  0.786949  0.302388  -0.593374
    O   O89   0.691958  0.286083  0.197036  -0.649877
    O   O90   0.295172  0.713051  0.197612  -0.593362
    O   O91   0.691958  0.713917  0.802964  -0.649865
    O   O92   0.295172  0.286949  0.802388  -0.593372
    O   O93   0.191958  0.786083  0.197036  -0.649850
    O   O94   0.795172  0.213051  0.197612  -0.593508
    O   O95   0.191958  0.213917  0.802964  -0.649837
    O   O96   0.795172  0.786949  0.802388  -0.593512
    C   C209  0.243343  0.308758  0.690601  0.811080
    C   C210  0.743797  0.690141  0.691537  0.699143
    C   C211  0.243343  0.691242  0.309399  0.811065
    C   C212  0.743797  0.309859  0.308463  0.699154
    C   C213  0.743343  0.808758  0.690601  0.810960
    C   C214  0.243797  0.190141  0.691537  0.698657
    C   C215  0.743343  0.191242  0.309399  0.810944
    C   C216  0.243797  0.809859  0.308463  0.698673
    C   C217  0.743343  0.308758  0.190601  0.810948
    C   C218  0.243797  0.690141  0.191537  0.698650
    C   C219  0.743343  0.691242  0.809399  0.810938
    C   C220  0.243797  0.309859  0.808463  0.698669
    C   C221  0.243343  0.808758  0.190601  0.811081
    C   C222  0.743797  0.190141  0.191537  0.699145
    C   C223  0.243343  0.191242  0.809399  0.811066
    C   C224  0.743797  0.809859  0.808463  0.699163
    Cu  Cu17  0.304539  0.250000  0.750000  0.966084
    Cu  Cu18  0.682645  0.750000  0.750000  0.939743
    Cu  Cu19  0.304539  0.750000  0.250000  0.966088
    Cu  Cu20  0.682645  0.250000  0.250000  0.939757
    Cu  Cu21  0.804539  0.750000  0.750000  0.966133
    Cu  Cu22  0.182645  0.250000  0.750000  0.939684
    Cu  Cu23  0.804539  0.250000  0.250000  0.966119
    Cu  Cu24  0.182645  0.750000  0.250000  0.939679
    N   N1    0.347731  0.633640  0.177098  -0.592188
    C   C225  0.403428  0.618431  0.157682  0.374939
    C   C226  0.439458  0.587694  0.179347  -0.276307
    C   C227  0.493151  0.572172  0.160002  -0.058784
    C   C228  0.511358  0.587614  0.119221  -0.145645
    C   C229  0.476222  0.618973  0.097947  -0.080102
    C   C230  0.422546  0.634570  0.117206  -0.210413
    H   H97   0.341227  0.623331  0.209102  0.334058
    H   H98   0.425348  0.575032  0.211151  0.131630
    H   H99   0.520886  0.547726  0.176772  0.093704
    H   H100  0.553325  0.575283  0.104015  0.098395
    H   H101  0.490702  0.631294  0.066096  0.115390
    H   H102  0.395355  0.659250  0.100316  0.104957
    N   N2    0.657709  0.378222  0.196798  -0.581825
    C   C231  0.674653  0.406957  0.231606  0.447371
    C   C232  0.628802  0.422301  0.259591  -0.345431
    C   C233  0.643399  0.449998  0.294049  0.001314
    C   C234  0.703957  0.462882  0.300671  -0.131700
    C   C235  0.750039  0.447592  0.273156  -0.078087
    C   C236  0.735890  0.419349  0.239006  -0.305697
    H   H103  0.612617  0.383541  0.186872  0.294466
    H   H104  0.581023  0.412432  0.254838  0.145343
    H   H105  0.607245  0.461655  0.315872  0.083323
    H   H106  0.715422  0.484606  0.327696  0.082956
    H   H107  0.797706  0.457297  0.278744  0.086356
    H   H108  0.773877  0.407483  0.219027  0.131435
    N   N3    0.347731  0.366360  0.822902  -0.592184
    C   C237  0.403428  0.381570  0.842318  0.374934
    C   C238  0.439458  0.412306  0.820653  -0.276293
    C   C239  0.493151  0.427828  0.839998  -0.058792
    C   C240  0.511358  0.412386  0.880779  -0.145642
    C   C241  0.476222  0.381027  0.902053  -0.080108
    C   C242  0.422546  0.365430  0.882794  -0.210410
    H   H109  0.341227  0.376669  0.790898  0.334061
    H   H110  0.425348  0.424968  0.788849  0.131626
    H   H111  0.520886  0.452275  0.823228  0.093703
    H   H112  0.553325  0.424717  0.895985  0.098394
    H   H113  0.490702  0.368706  0.933903  0.115395
    H   H114  0.395355  0.340751  0.899684  0.104961
    N   N4    0.657709  0.621778  0.803202  -0.581860
    C   C243  0.674653  0.593043  0.768394  0.447376
    C   C244  0.628802  0.577699  0.740409  -0.345444
    C   C245  0.643399  0.550002  0.705951  0.001277
    C   C246  0.703957  0.537119  0.699329  -0.131632
    C   C247  0.750039  0.552408  0.726844  -0.078145
    C   C248  0.735890  0.580651  0.760994  -0.305661
    H   H115  0.612617  0.616459  0.813128  0.294465
    H   H116  0.581023  0.587568  0.745162  0.145364
    H   H117  0.607245  0.538346  0.684128  0.083331
    H   H118  0.715422  0.515394  0.672304  0.082935
    H   H119  0.797706  0.542703  0.721256  0.086372
    H   H120  0.773877  0.592517  0.780973  0.131430
    N   N5    0.847731  0.133640  0.177098  -0.592033
    C   C249  0.903428  0.118431  0.157682  0.374930
    C   C250  0.939458  0.087694  0.179347  -0.276319
    C   C251  0.993151  0.072172  0.160002  -0.058838
    C   C252  0.011358  0.087614  0.119221  -0.145566
    C   C253  0.976222  0.118973  0.097947  -0.080112
    C   C254  0.922546  0.134570  0.117206  -0.210536
    H   H121  0.841227  0.123331  0.209102  0.333996
    H   H122  0.925348  0.075032  0.211151  0.131648
    H   H123  0.020886  0.047725  0.176772  0.093721
    H   H124  0.053325  0.075283  0.104015  0.098374
    H   H125  0.990702  0.131294  0.066097  0.115381
    H   H126  0.895355  0.159249  0.100316  0.105081
    N   N6    0.157709  0.878222  0.196798  -0.581940
    C   C255  0.174653  0.906957  0.231606  0.447393
    C   C256  0.128802  0.922301  0.259591  -0.345468
    C   C257  0.143399  0.949998  0.294049  0.001186
    C   C258  0.203957  0.962882  0.300671  -0.131496
    C   C259  0.250039  0.947592  0.273156  -0.078229
    C   C260  0.235890  0.919349  0.239006  -0.305637
    H   H127  0.112617  0.883541  0.186872  0.294483
    H   H128  0.081023  0.912432  0.254838  0.145384
    H   H129  0.107245  0.961654  0.315872  0.083351
    H   H130  0.215422  0.984606  0.327696  0.082886
    H   H131  0.297706  0.957297  0.278744  0.086376
    H   H132  0.273877  0.907483  0.219027  0.131430
    N   N7    0.847731  0.866360  0.822902  -0.592024
    C   C261  0.903428  0.881569  0.842318  0.374913
    C   C262  0.939458  0.912306  0.820653  -0.276316
    C   C263  0.993151  0.927828  0.839998  -0.058843
    C   C264  0.011358  0.912386  0.880780  -0.145549
    C   C265  0.976222  0.881027  0.902053  -0.080144
    C   C266  0.922546  0.865430  0.882794  -0.210513
    H   H133  0.841227  0.876669  0.790898  0.333998
    H   H134  0.925348  0.924968  0.788849  0.131650
    H   H135  0.020886  0.952274  0.823228  0.093720
    H   H136  0.053325  0.924717  0.895985  0.098378
    H   H137  0.990702  0.868706  0.933904  0.115379
    H   H138  0.895355  0.840750  0.899684  0.105079
    N   N8    0.157709  0.121778  0.803202  -0.581951
    C   C267  0.174653  0.093043  0.768394  0.447358
    C   C268  0.128802  0.077699  0.740409  -0.345428
    C   C269  0.143399  0.050002  0.705951  0.001136
    C   C270  0.203957  0.037119  0.699329  -0.131427
    C   C271  0.250039  0.052408  0.726844  -0.078297
    C   C272  0.235890  0.080651  0.760994  -0.305586
    H   H139  0.112617  0.116459  0.813128  0.294486
    H   H140  0.081023  0.087568  0.745162  0.145378
    H   H141  0.107245  0.038345  0.684128  0.083361
    H   H142  0.215422  0.015394  0.672304  0.082866
    H   H143  0.297706  0.042703  0.721256  0.086395
    H   H144  0.273877  0.092517  0.780973  0.131421
    N   N9    0.847732  0.633640  0.677098  -0.592016
    C   C273  0.903428  0.618431  0.657682  0.374884
    C   C274  0.939458  0.587694  0.679347  -0.276316
    C   C275  0.993151  0.572172  0.660002  -0.058893
    C   C276  0.011358  0.587614  0.619221  -0.145307
    C   C277  0.976222  0.618973  0.597947  -0.080253
    C   C278  0.922546  0.634570  0.617206  -0.210487
    H   H145  0.841227  0.623331  0.709102  0.333992
    H   H146  0.925348  0.575032  0.711151  0.131658
    H   H147  0.020886  0.547726  0.676772  0.093710
    H   H148  0.053325  0.575283  0.604015  0.098272
    H   H149  0.990702  0.631294  0.566097  0.115399
    H   H150  0.895355  0.659250  0.600316  0.105080
    N   N10   0.157709  0.378222  0.696798  -0.581947
    C   C279  0.174653  0.406957  0.731606  0.447385
    C   C280  0.128802  0.422301  0.759591  -0.345456
    C   C281  0.143399  0.449998  0.794049  0.001187
    C   C282  0.203957  0.462882  0.800671  -0.131503
    C   C283  0.250039  0.447592  0.773156  -0.078233
    C   C284  0.235890  0.419349  0.739006  -0.305631
    H   H151  0.112617  0.383541  0.686872  0.294485
    H   H152  0.081023  0.412432  0.754838  0.145382
    H   H153  0.107245  0.461654  0.815872  0.083350
    H   H154  0.215422  0.484606  0.827696  0.082889
    H   H155  0.297706  0.457297  0.778744  0.086378
    H   H156  0.273877  0.407483  0.719027  0.131428
    N   N11   0.847732  0.366360  0.322902  -0.592030
    C   C285  0.903428  0.381569  0.342318  0.374943
    C   C286  0.939458  0.412306  0.320653  -0.276326
    C   C287  0.993151  0.427828  0.339998  -0.058847
    C   C288  0.011358  0.412386  0.380780  -0.145553
    C   C289  0.976222  0.381027  0.402053  -0.080121
    C   C290  0.922546  0.365430  0.382794  -0.210541
    H   H157  0.841227  0.376669  0.290898  0.333996
    H   H158  0.925348  0.424968  0.288849  0.131652
    H   H159  0.020886  0.452274  0.323228  0.093723
    H   H160  0.053325  0.424717  0.395985  0.098374
    H   H161  0.990702  0.368706  0.433904  0.115377
    H   H162  0.895355  0.340750  0.399684  0.105084
    N   N12   0.157710  0.621778  0.303202  -0.581960
    C   C291  0.174653  0.593043  0.268394  0.447363
    C   C292  0.128802  0.577699  0.240409  -0.345432
    C   C293  0.143399  0.550002  0.205951  0.001137
    C   C294  0.203957  0.537119  0.199329  -0.131428
    C   C295  0.250039  0.552408  0.226844  -0.078304
    C   C296  0.235890  0.580651  0.260994  -0.305577
    H   H163  0.112618  0.616459  0.313128  0.294485
    H   H164  0.081023  0.587568  0.245162  0.145378
    H   H165  0.107245  0.538345  0.184128  0.083361
    H   H166  0.215422  0.515394  0.172304  0.082868
    H   H167  0.297706  0.542703  0.221256  0.086398
    H   H168  0.273877  0.592517  0.280973  0.131421
    N   N13   0.347732  0.133640  0.677098  -0.592179
    C   C297  0.403428  0.118431  0.657682  0.374945
    C   C298  0.439458  0.087694  0.679347  -0.276302
    C   C299  0.493151  0.072172  0.660002  -0.058802
    C   C300  0.511358  0.087614  0.619220  -0.145636
    C   C301  0.476222  0.118973  0.597947  -0.080109
    C   C302  0.422546  0.134570  0.617206  -0.210413
    H   H169  0.341227  0.123331  0.709102  0.334059
    H   H170  0.425348  0.075032  0.711151  0.131629
    H   H171  0.520886  0.047726  0.676772  0.093708
    H   H172  0.553325  0.075283  0.604015  0.098395
    H   H173  0.490702  0.131294  0.566096  0.115391
    H   H174  0.395355  0.159250  0.600316  0.104958
    N   N14   0.657710  0.878222  0.696798  -0.581814
    C   C303  0.674653  0.906957  0.731606  0.447378
    C   C304  0.628802  0.922301  0.759591  -0.345439
    C   C305  0.643399  0.949998  0.794049  0.001319
    C   C306  0.703957  0.962882  0.800671  -0.131704
    C   C307  0.750039  0.947592  0.773156  -0.078079
    C   C308  0.735890  0.919349  0.739006  -0.305706
    H   H175  0.612618  0.883541  0.686872  0.294458
    H   H176  0.581023  0.912432  0.754838  0.145344
    H   H177  0.607245  0.961655  0.815872  0.083323
    H   H178  0.715422  0.984606  0.827696  0.082956
    H   H179  0.797706  0.957297  0.778744  0.086353
    H   H180  0.773877  0.907483  0.719027  0.131438
    N   N15   0.347732  0.866360  0.322902  -0.592167
    C   C309  0.403428  0.881569  0.342318  0.374936
    C   C310  0.439458  0.912306  0.320653  -0.276310
    C   C311  0.493151  0.927828  0.339998  -0.058775
    C   C312  0.511358  0.912386  0.380779  -0.145642
    C   C313  0.476222  0.881027  0.402053  -0.080122
    C   C314  0.422546  0.865430  0.382794  -0.210406
    H   H181  0.341227  0.876669  0.290898  0.334059
    H   H182  0.425348  0.924968  0.288849  0.131629
    H   H183  0.520886  0.952274  0.323228  0.093700
    H   H184  0.553325  0.924717  0.395985  0.098396
    H   H185  0.490702  0.868706  0.433903  0.115393
    H   H186  0.395355  0.840750  0.399684  0.104959
    N   N16   0.657709  0.121778  0.303202  -0.581848
    C   C315  0.674653  0.093043  0.268394  0.447368
    C   C316  0.628802  0.077699  0.240409  -0.345439
    C   C317  0.643399  0.050002  0.205951  0.001272
    C   C318  0.703957  0.037119  0.199329  -0.131621
    C   C319  0.750039  0.052408  0.226844  -0.078148
    C   C320  0.735890  0.080651  0.260994  -0.305663
    H   H187  0.612617  0.116459  0.313128  0.294463
    H   H188  0.581023  0.087568  0.245162  0.145363
    H   H189  0.607245  0.038346  0.184128  0.083331
    H   H190  0.715422  0.015394  0.172304  0.082930
    H   H191  0.797706  0.042703  0.221255  0.086372
    H   H192  0.773877  0.092517  0.280973  0.131429
