# Generated by REPEAT Assigner based on pymatgen
data_DB0-m3_o3_o6_f0_nbo.sym.71_sqe
_audit_creation_date              2022-05-24
_audit_creation_method            REPEAT_Assigner
_cell_length_a                    38.688110
_cell_length_b                    38.688130
_cell_length_c                    32.274944
_cell_angle_alpha                 90.000000
_cell_angle_beta                  90.000000
_cell_angle_gamma                 90.000000
_cell_volume                      48308.187812
_symmetry_space_group_name_H-M    P1
_symmetry_Int_Tables_number       1
loop_
    _symmetry_equiv_pos_site_id
    _symmetry_equiv_pos_as_xyz
    1  x,y,z
loop_
    _atom_site_type_symbol
    _atom_site_label
    _atom_site_fract_x
    _atom_site_fract_y
    _atom_site_fract_z
    _atom_type_partial_charge
    O   O1    0.028911  0.551464  0.998731  -0.709825
    O   O2    0.551489  0.971030  0.000677  -0.707329
    O   O3    0.970961  0.448524  0.000606  -0.708163
    O   O4    0.448551  0.028978  0.998660  -0.709732
    O   O5    0.969273  0.551596  0.001139  -0.693382
    O   O6    0.448418  0.969341  0.001093  -0.693049
    O   O7    0.030632  0.448394  0.999528  -0.690412
    O   O8    0.551621  0.030699  0.999573  -0.689879
    O   O9    0.530632  0.051606  0.500472  -0.690405
    O   O10   0.051622  0.469301  0.500427  -0.689859
    O   O11   0.469273  0.948404  0.498861  -0.693397
    O   O12   0.948419  0.530659  0.498907  -0.693051
    O   O13   0.470961  0.051476  0.499394  -0.708173
    O   O14   0.948552  0.471022  0.501340  -0.709763
    O   O15   0.528911  0.948536  0.501269  -0.709867
    O   O16   0.051490  0.528970  0.499324  -0.707357
    C   C1    0.999116  0.567662  0.999882  0.620230
    C   C2    0.567684  0.000839  0.000177  0.614573
    C   C3    0.000771  0.432330  0.000099  0.615684
    C   C4    0.432353  0.999183  0.999802  0.620559
    C   C5    0.500771  0.067670  0.499902  0.615699
    C   C6    0.067685  0.499161  0.499823  0.614596
    C   C7    0.499116  0.932338  0.500119  0.620298
    C   C8    0.932353  0.500817  0.500198  0.620588
    O   O17   0.030625  0.498989  0.938157  -0.657159
    O   O18   0.499141  0.970970  0.938299  -0.671527
    O   O19   0.970923  0.500921  0.938287  -0.671818
    O   O20   0.501074  0.030672  0.938144  -0.657472
    O   O21   0.969256  0.500604  0.061849  -0.658591
    O   O22   0.499361  0.969343  0.061861  -0.658396
    O   O23   0.028975  0.499473  0.061717  -0.673930
    O   O24   0.500493  0.029063  0.061705  -0.674143
    O   O25   0.528975  0.000527  0.438283  -0.673945
    O   O26   0.000493  0.470937  0.438295  -0.674149
    O   O27   0.469256  0.999396  0.438152  -0.658631
    O   O28   0.999362  0.530656  0.438139  -0.658435
    O   O29   0.470923  0.999079  0.561713  -0.671830
    O   O30   0.001075  0.469328  0.561856  -0.657470
    O   O31   0.530625  0.001011  0.561843  -0.657187
    O   O32   0.999142  0.529030  0.561701  -0.671535
    C   C9    0.000755  0.499966  0.919007  0.718128
    C   C10   0.500110  0.000795  0.919006  0.716991
    C   C11   0.999136  0.500035  0.080998  0.723323
    C   C12   0.499916  0.999229  0.080998  0.722955
    C   C13   0.499136  0.999965  0.419002  0.723362
    C   C14   0.999916  0.500770  0.419002  0.723008
    C   C15   0.500754  0.000034  0.580993  0.718145
    C   C16   0.000111  0.499205  0.580994  0.716989
    Zn  Zn1   0.039112  0.500082  0.000103  1.316725
    Zn  Zn2   0.500097  0.960845  0.999910  1.316389
    Zn  Zn3   0.960777  0.499918  0.999892  1.317129
    Zn  Zn4   0.499932  0.039179  0.000085  1.316855
    Zn  Zn5   0.539112  0.999918  0.499897  1.316737
    Zn  Zn6   0.999933  0.460821  0.499916  1.316842
    Zn  Zn7   0.460777  0.000082  0.500108  1.317147
    Zn  Zn8   0.000097  0.539155  0.500090  1.316408
    C   C17   0.977534  0.520839  0.728428  -0.082113
    C   C18   0.521768  0.023176  0.728417  -0.082547
    C   C19   0.023225  0.478260  0.728447  -0.084192
    C   C20   0.479189  0.977486  0.728458  -0.079887
    C   C21   0.022424  0.521726  0.271402  -0.083646
    C   C22   0.478175  0.022516  0.271402  -0.084122
    C   C23   0.976736  0.479142  0.271724  -0.079635
    C   C24   0.520758  0.976828  0.271723  -0.077349
    C   C25   0.476736  0.020858  0.228276  -0.079685
    C   C26   0.020759  0.523172  0.228277  -0.077243
    C   C27   0.522423  0.978274  0.228598  -0.083596
    C   C28   0.978175  0.477484  0.228598  -0.083852
    C   C29   0.523225  0.021740  0.771553  -0.084186
    C   C30   0.979189  0.522514  0.771543  -0.079884
    C   C31   0.477534  0.979161  0.771572  -0.082104
    C   C32   0.021768  0.476823  0.771583  -0.082554
    C   C33   0.000330  0.499490  0.707288  0.084989
    C   C34   0.500528  0.000272  0.707288  0.084954
    C   C35   0.999635  0.500487  0.292711  0.084766
    C   C36   0.499410  0.999724  0.292711  0.085138
    C   C37   0.499635  0.999513  0.207289  0.084853
    C   C38   0.999411  0.500276  0.207289  0.084968
    C   C39   0.500330  0.000510  0.792712  0.084978
    C   C40   0.000528  0.499728  0.792713  0.084934
    C   C41   0.000238  0.499375  0.662717  -0.050396
    C   C42   0.500618  0.000162  0.662716  -0.050408
    C   C43   0.999748  0.500600  0.337281  -0.051787
    C   C44   0.499293  0.999829  0.337281  -0.051545
    C   C45   0.499748  0.999400  0.162719  -0.051855
    C   C46   0.999293  0.500171  0.162719  -0.051494
    C   C47   0.500237  0.000625  0.837283  -0.050388
    C   C48   0.000618  0.499838  0.837284  -0.050396
    C   C49   0.000686  0.499910  0.874611  -0.069596
    C   C50   0.500172  0.000711  0.874610  -0.068526
    C   C51   0.999209  0.500097  0.125393  -0.069077
    C   C52   0.499833  0.999314  0.125393  -0.068422
    C   C53   0.499209  0.999903  0.374607  -0.069046
    C   C54   0.999833  0.500686  0.374607  -0.068463
    C   C55   0.500686  0.000090  0.625389  -0.069585
    C   C56   0.000172  0.499289  0.625390  -0.068521
    C   C57   0.976279  0.878552  0.024198  0.075833
    C   C58   0.878586  0.023866  0.024203  0.073839
    C   C59   0.023933  0.121451  0.023843  0.077865
    C   C60   0.121484  0.976211  0.023839  0.073376
    C   C61   0.023378  0.878474  0.975928  0.075677
    C   C62   0.121520  0.023355  0.975632  0.074934
    C   C63   0.976538  0.121536  0.975999  0.076427
    C   C64   0.878457  0.976515  0.976296  0.073367
    C   C65   0.476539  0.378463  0.524001  0.076442
    C   C66   0.378458  0.523485  0.523704  0.073306
    C   C67   0.523378  0.621526  0.524072  0.075962
    C   C68   0.621520  0.476645  0.524368  0.075010
    C   C69   0.523934  0.378549  0.476157  0.077941
    C   C70   0.621485  0.523789  0.476161  0.073488
    C   C71   0.476280  0.621447  0.475802  0.076401
    C   C72   0.378587  0.476134  0.475797  0.073837
    C   C73   0.975941  0.842877  0.023442  -0.271128
    C   C74   0.842909  0.024221  0.023470  -0.272718
    C   C75   0.024270  0.157126  0.023088  -0.273998
    C   C76   0.157158  0.975891  0.023061  -0.269118
    C   C77   0.023576  0.842797  0.976654  -0.270498
    C   C78   0.157198  0.023568  0.976335  -0.268659
    C   C79   0.976309  0.157213  0.976785  -0.273900
    C   C80   0.842782  0.976301  0.977105  -0.270620
    C   C81   0.476310  0.342787  0.523216  -0.273843
    C   C82   0.342783  0.523698  0.522895  -0.270592
    C   C83   0.523577  0.657203  0.523345  -0.270705
    C   C84   0.657199  0.476431  0.523665  -0.268718
    C   C85   0.524271  0.342874  0.476912  -0.274001
    C   C86   0.657159  0.524109  0.476938  -0.269151
    C   C87   0.475941  0.657123  0.476558  -0.271530
    C   C88   0.342910  0.475779  0.476531  -0.272721
    H   H1    0.956555  0.829256  0.041095  0.133546
    H   H2    0.829323  0.043727  0.040967  0.134453
    H   H3    0.043789  0.170728  0.040547  0.134354
    H   H4    0.170795  0.956493  0.040677  0.133261
    H   H5    0.042910  0.829111  0.958993  0.132995
    H   H6    0.170869  0.042921  0.958685  0.132322
    H   H7    0.956837  0.170886  0.959331  0.133916
    H   H8    0.829094  0.956846  0.959641  0.133254
    H   H9    0.456837  0.329114  0.540669  0.133899
    H   H10   0.329095  0.543154  0.540359  0.133235
    H   H11   0.542911  0.670889  0.541006  0.133020
    H   H12   0.670870  0.457079  0.541315  0.132348
    H   H13   0.543789  0.329272  0.459453  0.134363
    H   H14   0.670796  0.543507  0.459323  0.133282
    H   H15   0.456556  0.670744  0.458904  0.133642
    H   H16   0.329324  0.456273  0.459034  0.134447
    C   C89   0.999718  0.824716  0.000032  0.088408
    C   C90   0.824716  0.000303  0.000296  0.091768
    C   C91   0.000313  0.175299  0.999953  0.094477
    C   C92   0.175298  0.999708  0.999689  0.085912
    C   C93   0.500313  0.324701  0.500048  0.094430
    C   C94   0.324716  0.499697  0.499704  0.091773
    C   C95   0.499719  0.675284  0.499967  0.088618
    C   C96   0.675299  0.500292  0.500311  0.085909
    C   C97   0.999856  0.896578  0.000060  -0.102876
    C   C98   0.896587  0.000162  0.000219  -0.098270
    C   C99   0.000201  0.103428  0.999924  -0.103885
    C   C100  0.103437  0.999817  0.999765  -0.101358
    C   C101  0.500202  0.396572  0.500076  -0.103991
    C   C102  0.396588  0.499837  0.499781  -0.098202
    C   C103  0.499857  0.603422  0.499940  -0.103038
    C   C104  0.603438  0.500183  0.500235  -0.101473
    C   C105  0.008420  0.768397  0.964573  -0.177286
    C   C106  0.768349  0.991195  0.965054  -0.175961
    C   C107  0.991131  0.231679  0.964759  -0.174962
    C   C108  0.231631  0.008484  0.964278  -0.177954
    C   C109  0.990762  0.768387  0.035379  -0.179926
    C   C110  0.231613  0.990778  0.035067  -0.179236
    C   C111  0.009654  0.231604  0.035250  -0.174763
    C   C112  0.768396  0.009670  0.035563  -0.176739
    C   C113  0.509654  0.268396  0.464750  -0.174796
    C   C114  0.268397  0.490330  0.464437  -0.176753
    C   C115  0.490762  0.731613  0.464620  -0.179917
    C   C116  0.731614  0.509222  0.464932  -0.179239
    C   C117  0.491132  0.268321  0.535241  -0.174987
    C   C118  0.731632  0.491516  0.535722  -0.177965
    C   C119  0.508420  0.731603  0.535427  -0.177287
    C   C120  0.268350  0.508804  0.534946  -0.175970
    H   H17   0.014422  0.781620  0.936001  0.119205
    H   H18   0.781529  0.984880  0.936553  0.119815
    H   H19   0.984800  0.218509  0.936256  0.119582
    H   H20   0.218419  0.014501  0.935704  0.119461
    H   H21   0.984821  0.781596  0.063979  0.120114
    H   H22   0.218392  0.984813  0.063652  0.119778
    H   H23   0.015942  0.218378  0.063730  0.119084
    H   H24   0.781611  0.015934  0.064058  0.119656
    H   H25   0.515942  0.281622  0.436270  0.119090
    H   H26   0.281611  0.484066  0.435942  0.119664
    H   H27   0.484821  0.718404  0.436021  0.120120
    H   H28   0.718392  0.515187  0.436348  0.119788
    H   H29   0.484800  0.281491  0.563744  0.119585
    H   H30   0.718420  0.485498  0.564296  0.119463
    H   H31   0.514422  0.718380  0.563999  0.119207
    H   H32   0.281530  0.515120  0.563447  0.119821
    C   C121  0.008777  0.732778  0.964751  -0.121065
    C   C122  0.732732  0.990804  0.965297  -0.124444
    C   C123  0.990725  0.267296  0.965030  -0.126249
    C   C124  0.267250  0.008856  0.964484  -0.120524
    C   C125  0.990234  0.732771  0.035125  -0.120074
    C   C126  0.267228  0.990267  0.034841  -0.119725
    C   C127  0.010178  0.267220  0.035046  -0.124707
    C   C128  0.732779  0.010211  0.035330  -0.121205
    C   C129  0.510178  0.232780  0.464955  -0.124690
    C   C130  0.232780  0.489789  0.464670  -0.121220
    C   C131  0.490235  0.767229  0.464875  -0.120064
    C   C132  0.767229  0.509732  0.465159  -0.119729
    C   C133  0.490725  0.232704  0.534970  -0.126239
    C   C134  0.767251  0.491144  0.535516  -0.120512
    C   C135  0.508777  0.767222  0.535249  -0.121047
    C   C136  0.232733  0.509196  0.534703  -0.124427
    H   H33   0.015427  0.719049  0.936696  0.103504
    H   H34   0.718964  0.983795  0.937396  0.104079
    H   H35   0.983691  0.281076  0.937146  0.104581
    H   H36   0.280991  0.015530  0.936446  0.103487
    H   H37   0.983518  0.719033  0.063149  0.103603
    H   H38   0.280953  0.983539  0.062870  0.103447
    H   H39   0.017259  0.280941  0.062954  0.103982
    H   H40   0.719045  0.017280  0.063234  0.102721
    H   H41   0.517259  0.219059  0.437046  0.103977
    H   H42   0.219046  0.482720  0.436766  0.102727
    H   H43   0.483518  0.780967  0.436851  0.103593
    H   H44   0.780953  0.516460  0.437129  0.103445
    H   H45   0.483692  0.218924  0.562854  0.104580
    H   H46   0.780993  0.484470  0.563553  0.103481
    H   H47   0.515427  0.780951  0.563304  0.103499
    H   H48   0.218965  0.516205  0.562605  0.104059
    C   C137  0.999461  0.714823  0.999918  0.077488
    C   C138  0.714813  0.000543  0.000317  0.081932
    C   C139  0.000483  0.285201  0.000054  0.084383
    C   C140  0.285191  0.999521  0.999655  0.076407
    C   C141  0.500483  0.214799  0.499946  0.084392
    C   C142  0.214813  0.499457  0.499684  0.081981
    C   C143  0.499461  0.785177  0.500082  0.077456
    C   C144  0.785192  0.500479  0.500345  0.076394
    C   C145  0.999633  0.786599  0.999995  0.125047
    C   C146  0.786588  0.000391  0.000307  0.119504
    C   C147  0.000365  0.213426  0.999987  0.118266
    C   C148  0.213415  0.999659  0.999677  0.125778
    C   C149  0.500366  0.286574  0.500013  0.118306
    C   C150  0.286589  0.499609  0.499694  0.119517
    C   C151  0.499634  0.713401  0.500004  0.125002
    C   C152  0.713416  0.500341  0.500323  0.125792
    C   C153  0.971111  0.659127  0.014792  -0.101845
    C   C154  0.659123  0.029211  0.014236  -0.099973
    C   C155  0.029153  0.340881  0.014017  -0.100517
    C   C156  0.340876  0.971168  0.014572  -0.099366
    C   C157  0.027529  0.659001  0.984935  -0.107156
    C   C158  0.341025  0.027594  0.984739  -0.105078
    C   C159  0.972019  0.341000  0.986179  -0.106939
    C   C160  0.659025  0.972084  0.986377  -0.106296
    C   C161  0.472019  0.159000  0.513821  -0.106934
    C   C162  0.159025  0.527916  0.513623  -0.106007
    C   C163  0.527529  0.840999  0.515065  -0.107255
    C   C164  0.841026  0.472406  0.515262  -0.105094
    C   C165  0.529153  0.159119  0.485983  -0.100510
    C   C166  0.840877  0.528832  0.485428  -0.099362
    C   C167  0.471111  0.840873  0.485208  -0.102053
    C   C168  0.159124  0.470789  0.485765  -0.099828
    H   H49   0.948743  0.672913  0.026167  0.101498
    H   H50   0.672915  0.051840  0.024835  0.100876
    H   H51   0.051786  0.327082  0.024590  0.101065
    H   H52   0.327083  0.948795  0.025921  0.100966
    H   H53   0.049965  0.672686  0.973579  0.102664
    H   H54   0.327348  0.050033  0.973375  0.102369
    H   H55   0.949334  0.327295  0.975588  0.102633
    H   H56   0.672737  0.949402  0.975793  0.102396
    H   H57   0.449334  0.172705  0.524413  0.102635
    H   H58   0.172738  0.550598  0.524207  0.102319
    H   H59   0.549965  0.827314  0.526421  0.102672
    H   H60   0.827350  0.449966  0.526625  0.102375
    H   H61   0.551786  0.172918  0.475410  0.101063
    H   H62   0.827083  0.551205  0.474079  0.100967
    H   H63   0.448743  0.827087  0.473833  0.101545
    H   H64   0.172915  0.448160  0.475165  0.100853
    C   C169  0.970788  0.623508  0.014178  -0.222187
    C   C170  0.623503  0.029517  0.013563  -0.222501
    C   C171  0.029455  0.376501  0.013394  -0.222293
    C   C172  0.376496  0.970848  0.014008  -0.224071
    C   C173  0.027681  0.623379  0.985519  -0.215773
    C   C174  0.376647  0.027748  0.985371  -0.217924
    C   C175  0.971855  0.376620  0.986833  -0.214542
    C   C176  0.623404  0.971923  0.986982  -0.215015
    C   C177  0.471855  0.123380  0.513167  -0.214553
    C   C178  0.123405  0.528077  0.513018  -0.215163
    C   C179  0.527681  0.876621  0.514481  -0.215689
    C   C180  0.876648  0.472252  0.514629  -0.217902
    C   C181  0.529455  0.123499  0.486606  -0.222285
    C   C182  0.876496  0.529151  0.485992  -0.224051
    C   C183  0.470788  0.876492  0.485822  -0.222035
    C   C184  0.123503  0.470483  0.486437  -0.222613
    H   H65   0.948333  0.609987  0.025742  0.150619
    H   H66   0.609954  0.052241  0.024295  0.149048
    H   H67   0.052181  0.390041  0.024137  0.149111
    H   H68   0.390006  0.948391  0.025583  0.150930
    H   H69   0.050075  0.609754  0.973959  0.149387
    H   H70   0.390280  0.050147  0.973838  0.149861
    H   H71   0.949185  0.390253  0.976090  0.147728
    H   H72   0.609780  0.949257  0.976212  0.147763
    H   H73   0.449185  0.109747  0.523911  0.147722
    H   H74   0.109781  0.550744  0.523789  0.147778
    H   H75   0.550075  0.890246  0.526041  0.149381
    H   H76   0.890281  0.449854  0.526162  0.149860
    H   H77   0.552181  0.109959  0.475863  0.149109
    H   H78   0.890007  0.551609  0.474417  0.150909
    H   H79   0.448333  0.890013  0.474258  0.150600
    H   H80   0.109954  0.447759  0.475705  0.149070
    C   C185  0.999193  0.605479  0.999847  0.179730
    C   C186  0.605495  0.000758  0.000250  0.183241
    C   C187  0.000691  0.394519  0.000118  0.182633
    C   C188  0.394535  0.999259  0.999714  0.180634
    C   C189  0.500691  0.105481  0.499882  0.182639
    C   C190  0.105496  0.499242  0.499750  0.183318
    C   C191  0.499193  0.894521  0.500153  0.179621
    C   C192  0.894536  0.500741  0.500286  0.180615
    C   C193  0.999365  0.677006  0.999877  0.047363
    C   C194  0.677006  0.000613  0.000317  0.045523
    C   C195  0.000552  0.323008  0.000086  0.045417
    C   C196  0.323008  0.999425  0.999646  0.046021
    C   C197  0.500552  0.176992  0.499914  0.045402
    C   C198  0.177007  0.499387  0.499683  0.045292
    C   C199  0.499365  0.822994  0.500123  0.047517
    C   C200  0.823009  0.500575  0.500354  0.046042
    O   O33   0.951177  0.016775  0.970995  -0.603164
    O   O34   0.016756  0.048778  0.970812  -0.604481
    O   O35   0.048757  0.983199  0.970788  -0.605023
    O   O36   0.983180  0.951197  0.970971  -0.605410
    O   O37   0.048904  0.016643  0.028961  -0.605339
    O   O38   0.983433  0.048864  0.029086  -0.604609
    O   O39   0.951213  0.983391  0.029219  -0.603521
    O   O40   0.016685  0.951172  0.029093  -0.606223
    O   O41   0.451214  0.516609  0.470781  -0.603478
    O   O42   0.516686  0.548828  0.470907  -0.606066
    O   O43   0.548905  0.483357  0.471039  -0.605338
    O   O44   0.483434  0.451136  0.470914  -0.604729
    O   O45   0.548758  0.516801  0.529212  -0.604939
    O   O46   0.483181  0.548803  0.529029  -0.605036
    O   O47   0.451177  0.483225  0.529005  -0.603120
    O   O48   0.516757  0.451222  0.529188  -0.604560
    C   C201  0.934454  0.000109  0.000144  0.713119
    C   C202  0.000125  0.065561  0.999939  0.719961
    C   C203  0.065571  0.999893  0.999837  0.720431
    C   C204  0.999908  0.934444  0.000042  0.722994
    C   C205  0.434455  0.499890  0.499856  0.712956
    C   C206  0.499909  0.565556  0.499958  0.722152
    C   C207  0.565572  0.500107  0.500163  0.720439
    C   C208  0.500126  0.434438  0.500062  0.720167
    Zn  Zn9   0.999948  0.999981  0.959520  1.154583
    Zn  Zn10  0.000077  0.000024  0.040461  1.154706
    Zn  Zn11  0.500078  0.499975  0.459539  1.154766
    Zn  Zn12  0.499949  0.500018  0.540480  1.154558
    C   C209  0.958482  0.548394  0.795997  0.104001
    C   C210  0.925889  0.532079  0.811287  -0.046635
    C   C211  0.917789  0.532505  0.851357  -0.531978
    H   H81   0.952050  0.571461  0.777335  0.016260
    H   H82   0.973833  0.558810  0.822143  0.026194
    H   H83   0.908449  0.519930  0.789415  0.105369
    H   H84   0.934640  0.544757  0.873806  0.218043
    H   H85   0.893983  0.520553  0.861744  0.189212
    C   C212  0.548984  0.042569  0.796043  0.113698
    C   C213  0.532592  0.075237  0.810981  -0.045918
    C   C214  0.532817  0.083537  0.850995  -0.535649
    H   H86   0.572143  0.048909  0.777501  0.013426
    H   H87   0.559271  0.027351  0.822372  0.023958
    H   H88   0.520552  0.092567  0.788898  0.104325
    H   H89   0.544958  0.066799  0.873651  0.218786
    H   H90   0.520814  0.107394  0.861124  0.190565
    C   C215  0.042585  0.451075  0.796104  0.111918
    C   C216  0.075245  0.467472  0.811057  -0.044846
    C   C217  0.083526  0.467260  0.851076  -0.535466
    H   H91   0.048935  0.427907  0.777581  0.013554
    H   H92   0.027353  0.440798  0.822428  0.024340
    H   H93   0.092584  0.479506  0.788979  0.103800
    H   H94   0.066779  0.455125  0.873726  0.218692
    H   H95   0.107379  0.479267  0.861216  0.190334
    C   C218  0.451664  0.958466  0.796057  0.107228
    C   C219  0.467985  0.925881  0.811361  -0.046396
    C   C220  0.467573  0.917800  0.851437  -0.532273
    H   H96   0.428589  0.952024  0.777414  0.014838
    H   H97   0.441259  0.973830  0.822198  0.025745
    H   H98   0.480128  0.908432  0.789495  0.104915
    H   H99   0.455326  0.934660  0.873880  0.217991
    H   H100  0.479528  0.893999  0.861834  0.189288
    C   C221  0.041464  0.548918  0.203617  0.098615
    C   C222  0.074047  0.532512  0.188434  -0.048001
    C   C223  0.082114  0.532688  0.148351  -0.527981
    H   H101  0.047910  0.572081  0.222099  0.017819
    H   H102  0.026108  0.559202  0.177401  0.028280
    H   H103  0.091504  0.520499  0.210394  0.106271
    H   H104  0.065244  0.544794  0.125810  0.215166
    H   H105  0.105914  0.520673  0.138046  0.188562
    C   C224  0.450995  0.041568  0.203614  0.104228
    C   C225  0.467405  0.074152  0.188443  -0.049345
    C   C226  0.467242  0.082222  0.148361  -0.528088
    H   H106  0.427828  0.048012  0.222092  0.016190
    H   H107  0.440715  0.026216  0.177393  0.026979
    H   H108  0.479411  0.091608  0.210410  0.106507
    H   H109  0.455144  0.065353  0.125812  0.215248
    H   H110  0.479260  0.106023  0.138063  0.188668
    C   C227  0.957341  0.451620  0.204275  0.109841
    C   C228  0.924677  0.467952  0.189230  -0.044701
    C   C229  0.916411  0.467612  0.149207  -0.533645
    H   H111  0.950996  0.428544  0.222965  0.013745
    H   H112  0.972558  0.441213  0.178012  0.025907
    H   H113  0.907326  0.480051  0.211243  0.104195
    H   H114  0.933174  0.455423  0.126615  0.215762
    H   H115  0.892557  0.479578  0.139002  0.190534
    C   C230  0.548293  0.957444  0.204277  0.108021
    C   C231  0.531964  0.924782  0.189220  -0.044629
    C   C232  0.532317  0.916518  0.149197  -0.532210
    H   H116  0.571365  0.951097  0.222971  0.014220
    H   H117  0.558704  0.972665  0.178020  0.026575
    H   H118  0.519858  0.907429  0.211226  0.104059
    H   H119  0.544514  0.933283  0.126613  0.215114
    H   H120  0.520354  0.892665  0.138984  0.190099
    C   C233  0.457341  0.048380  0.295725  0.110610
    C   C234  0.424677  0.032048  0.310771  -0.044961
    C   C235  0.416411  0.032388  0.350794  -0.533638
    H   H121  0.450996  0.071456  0.277035  0.013592
    H   H122  0.472558  0.058788  0.321988  0.025643
    H   H123  0.407326  0.019950  0.288758  0.104242
    H   H124  0.433174  0.044577  0.373386  0.215784
    H   H125  0.392556  0.020423  0.360999  0.190549
    C   C236  0.048293  0.542556  0.295723  0.108101
    C   C237  0.031965  0.575218  0.310780  -0.044658
    C   C238  0.032318  0.583481  0.350803  -0.532201
    H   H126  0.071366  0.548902  0.277029  0.014202
    H   H127  0.058705  0.527334  0.321980  0.026558
    H   H128  0.019859  0.592570  0.288774  0.104070
    H   H129  0.044515  0.566717  0.373387  0.215123
    H   H130  0.020355  0.607335  0.361016  0.190083
    C   C239  0.541464  0.951082  0.296383  0.098684
    C   C240  0.574047  0.967487  0.311566  -0.048056
    C   C241  0.582114  0.967312  0.351649  -0.527945
    H   H131  0.547909  0.927918  0.277901  0.017819
    H   H132  0.526108  0.940798  0.322599  0.028257
    H   H133  0.591504  0.979501  0.289606  0.106281
    H   H134  0.565244  0.955206  0.374190  0.215144
    H   H135  0.605913  0.979326  0.361955  0.188566
    C   C242  0.950995  0.458432  0.296386  0.104191
    C   C243  0.967405  0.425848  0.311558  -0.049368
    C   C244  0.967242  0.417778  0.351640  -0.528075
    H   H136  0.927829  0.451988  0.277908  0.016224
    H   H137  0.940715  0.473785  0.322608  0.026972
    H   H138  0.979411  0.408392  0.289591  0.106509
    H   H139  0.955144  0.434647  0.374189  0.215245
    H   H140  0.979260  0.393977  0.361937  0.188668
    C   C245  0.542585  0.048925  0.703896  0.111909
    C   C246  0.575245  0.032528  0.688944  -0.044858
    C   C247  0.583526  0.032740  0.648925  -0.535450
    H   H141  0.548934  0.072093  0.722420  0.013554
    H   H142  0.527352  0.059202  0.677572  0.024341
    H   H143  0.592584  0.020494  0.711021  0.103811
    H   H144  0.566779  0.044875  0.626274  0.218677
    H   H145  0.607378  0.020733  0.638785  0.190335
    C   C248  0.951664  0.541533  0.703943  0.107232
    C   C249  0.967986  0.574119  0.688639  -0.046407
    C   C250  0.967573  0.582200  0.648563  -0.532275
    H   H146  0.928589  0.547975  0.722586  0.014835
    H   H147  0.941259  0.526169  0.677802  0.025747
    H   H148  0.980128  0.591568  0.710505  0.104928
    H   H149  0.955326  0.565340  0.626120  0.217999
    H   H150  0.979528  0.606001  0.638166  0.189288
    C   C251  0.458482  0.951605  0.704003  0.103972
    C   C252  0.425889  0.967920  0.688713  -0.046635
    C   C253  0.417789  0.967495  0.648643  -0.531982
    H   H151  0.452050  0.928538  0.722665  0.016272
    H   H152  0.473833  0.941190  0.677857  0.026198
    H   H153  0.408449  0.980070  0.710585  0.105368
    H   H154  0.434640  0.955242  0.626194  0.218042
    H   H155  0.393983  0.979446  0.638256  0.189218
    C   C254  0.048984  0.457431  0.703957  0.113713
    C   C255  0.032593  0.424763  0.689019  -0.045924
    C   C256  0.032818  0.416463  0.649005  -0.535642
    H   H156  0.072144  0.451091  0.722500  0.013423
    H   H157  0.059272  0.472649  0.677628  0.023954
    H   H158  0.020553  0.407433  0.711103  0.104322
    H   H159  0.044959  0.433201  0.626349  0.218786
    H   H160  0.020815  0.392606  0.638876  0.190563
    C   C257  0.950532  0.897015  0.050707  -0.078096
    C   C258  0.968003  0.912615  0.087387  0.043885
    C   C259  0.950274  0.932609  0.113253  -0.528933
    H   H161  0.930662  0.878660  0.061984  0.065504
    H   H162  0.937134  0.917200  0.032552  0.062292
    H   H163  0.995212  0.907803  0.092926  0.081112
    H   H164  0.923092  0.937612  0.107734  0.200110
    H   H165  0.963065  0.944104  0.139762  0.167170
    C   C260  0.897077  0.049718  0.050536  -0.073689
    C   C261  0.912706  0.032392  0.087297  0.041494
    C   C262  0.932706  0.050230  0.113051  -0.526310
    H   H166  0.878737  0.069638  0.061721  0.063831
    H   H167  0.917249  0.063037  0.032281  0.062152
    H   H168  0.907912  0.005201  0.092990  0.081490
    H   H169  0.937693  0.077392  0.107378  0.199451
    H   H170  0.944223  0.037545  0.139619  0.166238
    C   C263  0.049839  0.102986  0.050127  -0.077654
    C   C264  0.032591  0.087402  0.086968  0.043045
    C   C265  0.050495  0.067474  0.112735  -0.527248
    H   H171  0.069782  0.121339  0.061222  0.064545
    H   H172  0.063121  0.082796  0.031860  0.063435
    H   H173  0.005404  0.092178  0.092715  0.080934
    H   H174  0.077655  0.062514  0.107014  0.199715
    H   H175  0.037869  0.055992  0.139365  0.166573
    C   C266  0.103048  0.950411  0.050299  -0.072996
    C   C267  0.087493  0.967804  0.087059  0.042457
    C   C268  0.067571  0.950008  0.112939  -0.527910
    H   H176  0.121416  0.930517  0.061486  0.063705
    H   H177  0.082846  0.937048  0.032131  0.061765
    H   H178  0.092286  0.995009  0.092653  0.081156
    H   H179  0.062595  0.922829  0.107371  0.199920
    H   H180  0.056111  0.962741  0.139509  0.166823
    C   C269  0.049218  0.896849  0.949462  -0.077904
    C   C270  0.031845  0.912503  0.912749  0.041312
    C   C271  0.049686  0.932389  0.886875  -0.526171
    H   H181  0.069037  0.878423  0.938222  0.065896
    H   H182  0.062666  0.916986  0.967643  0.061855
    H   H183  0.004618  0.907810  0.907185  0.082202
    H   H184  0.076888  0.937265  0.892415  0.199417
    H   H185  0.036969  0.943922  0.860339  0.166257
    C   C272  0.103118  0.049193  0.949189  -0.076121
    C   C273  0.087418  0.031814  0.912508  0.041309
    C   C274  0.067458  0.049639  0.886699  -0.527254
    H   H186  0.121530  0.069010  0.937914  0.065820
    H   H187  0.082999  0.062642  0.967396  0.060519
    H   H188  0.092130  0.004593  0.906921  0.082103
    H   H189  0.062555  0.076831  0.892266  0.199886
    H   H190  0.055890  0.036915  0.860189  0.166626
    C   C275  0.950597  0.103163  0.949674  -0.075858
    C   C276  0.967833  0.087514  0.912863  0.043273
    C   C277  0.949903  0.067600  0.887107  -0.528280
    H   H191  0.930729  0.121583  0.938545  0.064681
    H   H192  0.937228  0.083016  0.967916  0.062064
    H   H193  0.995034  0.092223  0.907138  0.080869
    H   H194  0.922730  0.062698  0.892811  0.200161
    H   H195  0.962522  0.056068  0.860503  0.166839
    C   C278  0.896804  0.950572  0.949948  -0.074554
    C   C279  0.912407  0.967801  0.913106  0.042171
    C   C280  0.932247  0.949854  0.887285  -0.526834
    H   H196  0.878371  0.930702  0.938855  0.064476
    H   H197  0.916969  0.937203  0.968165  0.062296
    H   H198  0.907717  0.995009  0.907403  0.081122
    H   H199  0.937121  0.922672  0.892963  0.199281
    H   H200  0.943743  0.962466  0.860654  0.166606
    C   C281  0.450598  0.396837  0.550327  -0.075902
    C   C282  0.467834  0.412487  0.587137  0.043327
    C   C283  0.449904  0.432400  0.612893  -0.528301
    H   H201  0.430730  0.378417  0.561455  0.064692
    H   H202  0.437228  0.416984  0.532084  0.062062
    H   H203  0.495035  0.407777  0.592862  0.080849
    H   H204  0.422731  0.437302  0.607189  0.200165
    H   H205  0.462523  0.443932  0.639497  0.166843
    C   C284  0.396805  0.549428  0.550052  -0.074570
    C   C285  0.412408  0.532199  0.586894  0.042202
    C   C286  0.432248  0.550146  0.612715  -0.526916
    H   H206  0.378372  0.569298  0.561145  0.064493
    H   H207  0.416970  0.562797  0.531835  0.062265
    H   H208  0.407718  0.504991  0.592597  0.081136
    H   H209  0.437122  0.577328  0.607037  0.199307
    H   H210  0.443744  0.537535  0.639345  0.166633
    C   C287  0.549218  0.603151  0.550537  -0.077968
    C   C288  0.531845  0.587497  0.587251  0.041321
    C   C289  0.549687  0.567611  0.613124  -0.526182
    H   H211  0.569038  0.621577  0.561778  0.065897
    H   H212  0.562667  0.583014  0.532357  0.061882
    H   H213  0.504619  0.592190  0.592815  0.082208
    H   H214  0.576889  0.562735  0.607585  0.199433
    H   H215  0.536970  0.556079  0.639661  0.166246
    C   C290  0.603118  0.450807  0.550811  -0.076132
    C   C291  0.587419  0.468186  0.587492  0.041310
    C   C292  0.567458  0.450361  0.613301  -0.527262
    H   H216  0.621531  0.430990  0.562086  0.065814
    H   H217  0.583000  0.437358  0.532604  0.060521
    H   H218  0.592131  0.495406  0.593079  0.082096
    H   H219  0.562555  0.423169  0.607734  0.199894
    H   H220  0.555891  0.463085  0.639811  0.166631
    C   C293  0.549839  0.397013  0.449873  -0.077731
    C   C294  0.532591  0.412598  0.413032  0.043109
    C   C295  0.550495  0.432526  0.387266  -0.527283
    H   H221  0.569782  0.378660  0.438778  0.064558
    H   H222  0.563122  0.417204  0.468141  0.063440
    H   H223  0.505405  0.407821  0.407285  0.080910
    H   H224  0.577656  0.437485  0.392986  0.199720
    H   H225  0.537870  0.444007  0.360636  0.166586
    C   C296  0.603049  0.549589  0.449701  -0.073210
    C   C297  0.587493  0.532196  0.412941  0.042593
    C   C298  0.567572  0.549992  0.387061  -0.527976
    H   H226  0.621417  0.569482  0.438514  0.063733
    H   H227  0.582846  0.562952  0.467869  0.061861
    H   H228  0.592287  0.504991  0.407347  0.081128
    H   H229  0.562596  0.577171  0.392629  0.199944
    H   H230  0.556112  0.537259  0.360491  0.166827
    C   C299  0.450533  0.602984  0.449293  -0.078536
    C   C300  0.468004  0.587385  0.412613  0.044028
    C   C301  0.450274  0.567391  0.386746  -0.528998
    H   H231  0.430663  0.621340  0.438016  0.065542
    H   H232  0.437135  0.582800  0.467448  0.062517
    H   H233  0.495213  0.592196  0.407074  0.081105
    H   H234  0.423093  0.562388  0.392266  0.200134
    H   H235  0.463065  0.555896  0.360238  0.167187
    C   C302  0.397078  0.450282  0.449464  -0.073582
    C   C303  0.412707  0.467607  0.412703  0.041367
    C   C304  0.432707  0.449770  0.386950  -0.526034
    H   H236  0.378738  0.430362  0.438279  0.063787
    H   H237  0.417250  0.436963  0.467719  0.062136
    H   H238  0.407913  0.494798  0.407010  0.081488
    H   H239  0.437693  0.422607  0.392622  0.199372
    H   H240  0.444224  0.462454  0.360381  0.166143
