# Generated by REPEAT Assigner based on pymatgen
data_DB0-m3_o9_o28_f0_nbo.sym.16
_audit_creation_date              2022-05-24
_audit_creation_method            REPEAT_Assigner
_cell_length_a                    21.629503
_cell_length_b                    21.629524
_cell_length_c                    46.878439
_cell_angle_alpha                 90.000000
_cell_angle_beta                  90.000000
_cell_angle_gamma                 90.000000
_cell_volume                      21931.413682
_symmetry_space_group_name_H-M    P1
_symmetry_Int_Tables_number       1
loop_
    _symmetry_equiv_pos_site_id
    _symmetry_equiv_pos_as_xyz
    1  x,y,z
loop_
    _atom_site_type_symbol
    _atom_site_label
    _atom_site_fract_x
    _atom_site_fract_y
    _atom_site_fract_z
    _atom_type_partial_charge
    O   O1    0.032701  0.913944  0.025443  -0.656417
    O   O2    0.086318  0.032774  0.025308  -0.654494
    O   O3    0.967476  0.086399  0.025437  -0.658010
    O   O4    0.913863  0.967550  0.025572  -0.657899
    O   O5    0.532524  0.413604  0.525436  -0.657853
    O   O6    0.586137  0.532453  0.525571  -0.657826
    O   O7    0.467298  0.586059  0.525444  -0.656364
    O   O8    0.413682  0.467228  0.525309  -0.654274
    O   O9    0.972045  0.912202  0.985572  -0.823644
    O   O10   0.087716  0.972274  0.985382  -0.821046
    O   O11   0.027647  0.087945  0.985408  -0.822747
    O   O12   0.911973  0.027876  0.985597  -0.823506
    O   O13   0.472351  0.412060  0.485407  -0.822608
    O   O14   0.588025  0.472129  0.485596  -0.823508
    O   O15   0.527953  0.587803  0.485572  -0.823571
    O   O16   0.412282  0.527731  0.485383  -0.820956
    C   C1    0.002778  0.883302  0.005678  1.002339
    C   C2    0.116788  0.002944  0.005454  0.995898
    C   C3    0.997125  0.116946  0.005549  1.003783
    C   C4    0.883145  0.997291  0.005772  1.004951
    C   C5    0.502874  0.383058  0.505548  1.003495
    C   C6    0.616854  0.502713  0.505771  1.004807
    C   C7    0.497221  0.616701  0.505679  1.002154
    C   C8    0.383211  0.497059  0.505455  0.995599
    C   C9    0.501263  0.001238  0.762883  0.090499
    C   C10   0.001699  0.501049  0.762882  0.098780
    C   C11   0.998740  0.498773  0.262883  0.090393
    C   C12   0.498288  0.998946  0.262882  0.099081
    Zn  Zn1   0.000137  0.000189  0.033242  1.082950
    Zn  Zn2   0.499864  0.499813  0.533242  1.082881
    Zn  Zn3   0.999794  0.000056  0.977706  1.306916
    Zn  Zn4   0.500203  0.499949  0.477706  1.306876
    C   C13   0.500451  0.001614  0.942366  0.676321
    C   C14   0.001673  0.500160  0.942366  0.678136
    C   C15   0.999551  0.498391  0.442366  0.676524
    C   C16   0.498321  0.999841  0.442366  0.678136
    O   O17   0.592993  0.050635  0.997995  -0.680631
    O   O18   0.949270  0.593068  0.998947  -0.678783
    O   O19   0.407021  0.949260  0.998770  -0.679088
    O   O20   0.050650  0.407101  0.997818  -0.681372
    O   O21   0.092978  0.550742  0.498772  -0.679123
    O   O22   0.449347  0.092903  0.497818  -0.681375
    O   O23   0.907006  0.449368  0.497994  -0.680682
    O   O24   0.550726  0.906936  0.498947  -0.678707
    O   O25   0.591329  0.944001  0.998917  -0.645107
    O   O26   0.055866  0.591398  0.997831  -0.641161
    O   O27   0.408694  0.055857  0.997637  -0.641214
    O   O28   0.944013  0.408758  0.998723  -0.646456
    O   O29   0.091305  0.444145  0.497638  -0.641220
    O   O30   0.555984  0.091246  0.498721  -0.646388
    O   O31   0.908670  0.556001  0.498916  -0.645091
    O   O32   0.444130  0.908606  0.497833  -0.641099
    C   C17   0.621076  0.996876  0.998258  0.627876
    C   C18   0.002991  0.621170  0.998191  0.622198
    C   C19   0.378923  0.002977  0.997950  0.626310
    C   C20   0.996891  0.379018  0.998016  0.629501
    C   C21   0.121075  0.497026  0.497952  0.626287
    C   C22   0.503106  0.120986  0.498015  0.629323
    C   C23   0.878923  0.503127  0.498257  0.628200
    C   C24   0.497006  0.878834  0.498193  0.621930
    Zn  Zn5   0.501360  0.070014  0.998363  1.325344
    Zn  Zn6   0.929959  0.501439  0.998073  1.328725
    Zn  Zn7   0.498656  0.929947  0.998084  1.329052
    Zn  Zn8   0.070026  0.498728  0.998373  1.325263
    Zn  Zn9   0.001343  0.570056  0.498085  1.329021
    Zn  Zn10  0.429971  0.001276  0.498374  1.325285
    Zn  Zn11  0.998639  0.429989  0.498362  1.325331
    Zn  Zn12  0.570038  0.998565  0.498073  1.328597
    C   C25   0.873446  0.118673  0.075598  -0.175583
    C   C26   0.882537  0.873641  0.075967  -0.174763
    C   C27   0.126891  0.881879  0.075574  -0.175546
    C   C28   0.119326  0.127075  0.075200  -0.172703
    C   C29   0.373109  0.618120  0.575576  -0.175461
    C   C30   0.380681  0.372928  0.575202  -0.173108
    C   C31   0.626555  0.381325  0.575595  -0.175598
    C   C32   0.617467  0.626361  0.575965  -0.174973
    H   H1    0.898993  0.104008  0.094157  0.116621
    H   H2    0.897444  0.899125  0.094503  0.116915
    H   H3    0.101728  0.896552  0.094244  0.116709
    H   H4    0.104895  0.101846  0.093891  0.116046
    H   H5    0.398274  0.603447  0.594246  0.116693
    H   H6    0.395114  0.398155  0.593893  0.116166
    H   H7    0.601010  0.395989  0.594156  0.116570
    H   H8    0.602562  0.600876  0.594502  0.117111
    C   C33   0.844077  0.073655  0.059784  -0.210426
    C   C34   0.927339  0.844230  0.060038  -0.214571
    C   C35   0.156197  0.926856  0.059707  -0.213122
    C   C36   0.074135  0.156345  0.059449  -0.215011
    C   C37   0.343803  0.573145  0.559708  -0.213089
    C   C38   0.425870  0.343658  0.559450  -0.214705
    C   C39   0.655924  0.426345  0.559782  -0.210444
    C   C40   0.572664  0.655773  0.560038  -0.214863
    H   H9    0.846890  0.025977  0.066461  0.120209
    H   H10   0.975096  0.846977  0.066596  0.121861
    H   H11   0.153697  0.974522  0.066429  0.121766
    H   H12   0.026550  0.153778  0.066290  0.120821
    H   H13   0.346304  0.525478  0.566430  0.121639
    H   H14   0.473455  0.346224  0.566290  0.120653
    H   H15   0.653111  0.474022  0.566460  0.120126
    H   H16   0.524907  0.653024  0.566597  0.121895
    C   C41   0.811748  0.088991  0.035434  0.141563
    C   C42   0.911679  0.811950  0.035720  0.148783
    C   C43   0.188088  0.911479  0.035243  0.146537
    C   C44   0.089187  0.188289  0.034955  0.150280
    C   C45   0.311910  0.588523  0.535245  0.146685
    C   C46   0.410814  0.311715  0.534956  0.150236
    C   C47   0.688251  0.411011  0.535431  0.141987
    C   C48   0.588322  0.688054  0.535720  0.149621
    C   C49   0.807370  0.150051  0.027369  -0.194868
    C   C50   0.850532  0.807732  0.027780  -0.198429
    C   C51   0.191936  0.850459  0.027058  -0.190638
    C   C52   0.150119  0.192295  0.026646  -0.197026
    C   C53   0.308061  0.649544  0.527062  -0.190918
    C   C54   0.349882  0.307711  0.526648  -0.196957
    C   C55   0.692627  0.349952  0.527365  -0.195204
    C   C56   0.649468  0.692273  0.527779  -0.199227
    H   H17   0.781864  0.162601  0.008406  0.092210
    H   H18   0.837743  0.782301  0.008828  0.092983
    H   H19   0.217033  0.837908  0.007979  0.090724
    H   H20   0.162432  0.217470  0.007555  0.093325
    H   H21   0.282963  0.662096  0.507982  0.090719
    H   H22   0.337566  0.282537  0.507557  0.093295
    H   H23   0.718133  0.337403  0.508401  0.092292
    H   H24   0.662255  0.717706  0.508828  0.093155
    C   C57   0.836942  0.195130  0.043043  -0.076737
    C   C58   0.805671  0.837369  0.043559  -0.075827
    C   C59   0.162379  0.805436  0.042767  -0.076863
    C   C60   0.195360  0.162798  0.042247  -0.074078
    C   C61   0.337618  0.694566  0.542771  -0.076679
    C   C62   0.304643  0.337208  0.542250  -0.074126
    C   C63   0.663056  0.304871  0.543038  -0.076790
    C   C64   0.694330  0.662636  0.543557  -0.075578
    H   H25   0.834041  0.242853  0.036405  0.036003
    H   H26   0.757881  0.834599  0.037011  0.036915
    H   H27   0.164861  0.757755  0.036024  0.037110
    H   H28   0.242971  0.165408  0.035414  0.036484
    H   H29   0.335135  0.742247  0.536029  0.037115
    H   H30   0.257032  0.334600  0.535418  0.036501
    H   H31   0.665956  0.257149  0.536400  0.036147
    H   H32   0.742120  0.665408  0.537009  0.036860
    C   C65   0.870415  0.180081  0.067113  0.024305
    C   C66   0.821032  0.870733  0.067619  0.021897
    C   C67   0.129490  0.820499  0.067007  0.017298
    C   C68   0.180607  0.129795  0.066494  0.016495
    C   C69   0.370509  0.679502  0.567010  0.017144
    C   C70   0.319399  0.370209  0.566498  0.016275
    C   C71   0.629585  0.319918  0.567109  0.024215
    C   C72   0.678972  0.629271  0.567617  0.021971
    C   C73   0.718291  0.041773  0.015099  -0.267578
    C   C74   0.958613  0.718440  0.015310  -0.250647
    C   C75   0.281612  0.958542  0.014950  -0.248481
    C   C76   0.041842  0.281761  0.014738  -0.264775
    C   C77   0.218387  0.541460  0.514952  -0.248462
    C   C78   0.458156  0.218243  0.514738  -0.264764
    C   C79   0.781708  0.458230  0.515097  -0.267338
    C   C80   0.541385  0.781564  0.515311  -0.250899
    H   H33   0.691616  0.077186  0.025728  0.136903
    H   H34   0.923480  0.691824  0.026164  0.133939
    H   H35   0.308184  0.923347  0.025785  0.132126
    H   H36   0.077317  0.308393  0.025346  0.135145
    H   H37   0.191814  0.576655  0.525786  0.132161
    H   H38   0.422683  0.191612  0.525346  0.135093
    H   H39   0.808383  0.422816  0.525726  0.136837
    H   H40   0.576518  0.808181  0.526165  0.133996
    C   C81   0.688798  0.996406  0.999401  0.126683
    C   C82   0.003522  0.688922  0.999334  0.117206
    C   C83   0.311169  0.003490  0.999017  0.113932
    C   C84   0.996438  0.311292  0.999083  0.128589
    C   C85   0.188830  0.496512  0.499019  0.113975
    C   C86   0.503559  0.188712  0.499081  0.129131
    C   C87   0.811201  0.503597  0.499399  0.126199
    C   C88   0.496474  0.811082  0.499336  0.117702
    C   C89   0.723646  0.950691  0.986148  -0.095679
    C   C90   0.048765  0.723811  0.985755  -0.093702
    C   C91   0.276313  0.048744  0.985425  -0.093049
    C   C92   0.950711  0.276477  0.985818  -0.098225
    C   C93   0.223686  0.451258  0.485427  -0.093141
    C   C94   0.549284  0.223526  0.485815  -0.099390
    C   C95   0.776353  0.549312  0.486146  -0.095367
    C   C96   0.451230  0.776193  0.485758  -0.094056
    C   C97   0.786977  0.950279  0.989543  -0.174542
    C   C98   0.049264  0.787136  0.989137  -0.174478
    C   C99   0.212982  0.049311  0.988828  -0.171073
    C   C100  0.950232  0.213142  0.989234  -0.175083
    C   C101  0.287017  0.450692  0.488830  -0.171115
    C   C102  0.549764  0.286861  0.489231  -0.174077
    C   C103  0.713022  0.549724  0.489541  -0.174677
    C   C104  0.450732  0.712867  0.489139  -0.174188
    H   H41   0.814746  0.916373  0.978462  0.118727
    H   H42   0.082824  0.814891  0.977827  0.117999
    H   H43   0.185238  0.082910  0.977537  0.117275
    H   H44   0.916288  0.185384  0.978172  0.118284
    H   H45   0.314761  0.417093  0.477539  0.117291
    H   H46   0.583706  0.314620  0.478169  0.118097
    H   H47   0.685253  0.583631  0.478461  0.118814
    H   H48   0.417171  0.685112  0.477831  0.117989
    C   C105  0.815903  0.994990  0.005559  -0.099046
    C   C106  0.005037  0.816064  0.005430  -0.092996
    C   C107  0.184030  0.005090  0.005122  -0.092419
    C   C108  0.994936  0.184192  0.005251  -0.095640
    C   C109  0.315969  0.494913  0.505123  -0.092260
    C   C110  0.505062  0.315812  0.505250  -0.095981
    C   C111  0.684096  0.505014  0.505558  -0.098875
    C   C112  0.494960  0.683940  0.505431  -0.093055
    C   C113  0.781587  0.040921  0.018455  0.118876
    C   C114  0.959486  0.781750  0.018604  0.106593
    C   C115  0.218309  0.959430  0.018229  0.104885
    C   C116  0.040976  0.218472  0.018079  0.110532
    C   C117  0.281690  0.540572  0.518231  0.104904
    C   C118  0.459024  0.281532  0.518079  0.110569
    C   C119  0.718412  0.459081  0.518453  0.118652
    C   C120  0.540512  0.718254  0.518605  0.106459
    C   C121  0.707479  0.843969  0.969458  -0.405277
    C   C122  0.154881  0.707247  0.968352  -0.395279
    C   C123  0.292762  0.154770  0.967849  -0.399576
    C   C124  0.844075  0.292540  0.968954  -0.407651
    C   C125  0.207237  0.345231  0.467853  -0.399461
    C   C126  0.655918  0.207463  0.468949  -0.407227
    C   C127  0.792520  0.656034  0.469456  -0.405198
    C   C128  0.345113  0.792757  0.468357  -0.395100
    H   H49   0.733584  0.827774  0.987575  0.211657
    H   H50   0.171786  0.732822  0.986498  0.207450
    H   H51   0.266975  0.171783  0.985907  0.209317
    H   H52   0.827771  0.266232  0.986985  0.212936
    H   H53   0.233023  0.328219  0.485911  0.209258
    H   H54   0.672224  0.233771  0.486979  0.212809
    H   H55   0.766414  0.672229  0.487573  0.211722
    H   H56   0.328209  0.767182  0.486503  0.207482
    C   C129  0.685248  0.801612  0.949995  0.156620
    C   C130  0.196483  0.685163  0.948508  0.151495
    C   C131  0.314948  0.196256  0.947978  0.154140
    C   C132  0.801833  0.314872  0.949463  0.160527
    C   C133  0.185050  0.303743  0.447983  0.153977
    C   C134  0.698158  0.185130  0.449457  0.160188
    C   C135  0.814750  0.698391  0.449993  0.156469
    C   C136  0.303509  0.814839  0.448513  0.151298
    C   C137  0.652543  0.822677  0.926443  -0.268175
    C   C138  0.174461  0.653212  0.924918  -0.259956
    C   C139  0.347182  0.174113  0.924495  -0.260822
    C   C140  0.823022  0.347846  0.926015  -0.268519
    C   C141  0.152817  0.325885  0.424499  -0.260825
    C   C142  0.676966  0.152156  0.426009  -0.268287
    C   C143  0.847457  0.677325  0.426441  -0.267725
    C   C144  0.325528  0.846790  0.424923  -0.259772
    H   H57   0.634545  0.791980  0.910329  0.127120
    H   H58   0.204532  0.635403  0.908512  0.124245
    H   H59   0.365093  0.204089  0.908075  0.124475
    H   H60   0.792418  0.365942  0.909887  0.126822
    H   H61   0.134906  0.295907  0.408080  0.124465
    H   H62   0.707567  0.134060  0.409881  0.126717
    H   H63   0.865454  0.708022  0.410327  0.127066
    H   H64   0.295455  0.864599  0.408517  0.124226
    C   C145  0.642868  0.885137  0.922757  -0.013786
    C   C146  0.111824  0.644098  0.921580  -0.016952
    C   C147  0.356459  0.111470  0.921286  -0.015296
    C   C148  0.885491  0.357671  0.922456  -0.012677
    C   C149  0.143541  0.388528  0.421288  -0.015304
    C   C150  0.614496  0.142331  0.422452  -0.012659
    C   C151  0.857132  0.614865  0.422755  -0.014534
    C   C152  0.388165  0.855904  0.421584  -0.017188
    H   H65   0.618936  0.901427  0.904008  0.065849
    H   H66   0.094771  0.620801  0.902804  0.067560
    H   H67   0.379985  0.094312  0.902590  0.066055
    H   H68   0.901888  0.381820  0.903786  0.064902
    H   H69   0.120016  0.405684  0.402592  0.066078
    H   H70   0.598097  0.118182  0.403782  0.064904
    H   H71   0.881065  0.598574  0.404007  0.066041
    H   H72   0.405215  0.879200  0.402807  0.067570
    C   C153  0.664414  0.926923  0.942533  -0.188389
    C   C154  0.070812  0.665407  0.941748  -0.188645
    C   C155  0.335033  0.070577  0.941479  -0.188696
    C   C156  0.927159  0.336011  0.942259  -0.186934
    C   C157  0.164967  0.429422  0.441481  -0.188669
    C   C158  0.572831  0.163991  0.442256  -0.187138
    C   C159  0.835586  0.573080  0.442532  -0.187687
    C   C160  0.429179  0.834595  0.441751  -0.188182
    H   H73   0.657406  0.975836  0.939081  0.080221
    H   H74   0.021745  0.658816  0.938598  0.081940
    H   H75   0.341756  0.021501  0.938420  0.081590
    H   H76   0.976084  0.343141  0.938897  0.079582
    H   H77   0.158244  0.478498  0.438421  0.081560
    H   H78   0.523905  0.156861  0.438896  0.079697
    H   H79   0.842594  0.524166  0.439081  0.080048
    H   H80   0.478246  0.841186  0.438600  0.081827
    C   C161  0.696451  0.906356  0.966135  0.282316
    C   C162  0.092329  0.696730  0.965367  0.277654
    C   C163  0.303447  0.092214  0.965002  0.276795
    C   C164  0.906470  0.303725  0.965767  0.282678
    C   C165  0.196553  0.407786  0.465005  0.276823
    C   C166  0.593523  0.196278  0.465763  0.282817
    C   C167  0.803548  0.593647  0.466133  0.281829
    C   C168  0.407664  0.803273  0.465371  0.277288
    C   C169  0.546567  0.030979  0.807159  0.476683
    C   C170  0.972301  0.546247  0.807228  0.472345
    C   C171  0.455617  0.972002  0.807153  0.472299
    C   C172  0.031280  0.455299  0.807083  0.468488
    C   C173  0.044386  0.528008  0.307153  0.472077
    C   C174  0.468708  0.044696  0.307083  0.470154
    C   C175  0.953437  0.469031  0.307158  0.476812
    C   C176  0.527687  0.953748  0.307228  0.472712
    N   N1    0.501049  0.001550  0.821471  -0.155670
    N   N2    0.001803  0.500674  0.821471  -0.150277
    N   N3    0.998955  0.498460  0.321471  -0.155388
    N   N4    0.498185  0.999321  0.321471  -0.150795
    O   O33   0.912605  0.433999  0.174710  -0.461515
    O   O34   0.563967  0.912732  0.174871  -0.460764
    O   O35   0.084147  0.564679  0.174742  -0.462175
    O   O36   0.433282  0.084270  0.174581  -0.460080
    O   O37   0.415854  0.935333  0.674742  -0.462199
    O   O38   0.066707  0.415726  0.674580  -0.460016
    O   O39   0.587398  0.066012  0.674710  -0.461726
    O   O40   0.936022  0.587264  0.674871  -0.460770
    H   H81   0.125022  0.586908  0.222444  0.123639
    H   H82   0.410532  0.125167  0.222230  0.123804
    H   H83   0.872123  0.411152  0.222430  0.121909
    H   H84   0.586292  0.872273  0.222643  0.123964
    H   H85   0.627880  0.088859  0.722430  0.122112
    H   H86   0.913695  0.627722  0.722643  0.124145
    H   H87   0.374979  0.913105  0.722444  0.123629
    H   H88   0.089456  0.374828  0.722230  0.123776
    H   H89   0.628578  0.087856  0.773902  0.133029
    H   H90   0.915179  0.628346  0.774111  0.131926
    H   H91   0.373852  0.914760  0.773907  0.131981
    H   H92   0.088281  0.373626  0.773697  0.132655
    H   H93   0.126150  0.585251  0.273907  0.132012
    H   H94   0.411707  0.126369  0.273698  0.132631
    H   H95   0.871426  0.412154  0.273902  0.133052
    H   H96   0.584808  0.871648  0.274110  0.131952
    O   O41   0.592789  0.058206  0.821622  -0.503360
    O   O42   0.945179  0.592434  0.821758  -0.501894
    O   O43   0.409282  0.944935  0.821604  -0.501072
    O   O44   0.058454  0.408930  0.821468  -0.501402
    O   O45   0.090721  0.555075  0.321604  -0.501039
    O   O46   0.441535  0.091065  0.321468  -0.501728
    O   O47   0.907215  0.441803  0.321622  -0.503377
    O   O48   0.554809  0.907561  0.321758  -0.501864
    C   C177  0.499361  0.946513  0.866851  -0.148803
    C   C178  0.056863  0.498779  0.866854  -0.140314
    C   C179  0.502512  0.056697  0.866838  -0.132201
    C   C180  0.946679  0.501931  0.866834  -0.149402
    C   C181  0.997493  0.443311  0.366838  -0.131958
    C   C182  0.553311  0.998066  0.366833  -0.149353
    C   C183  0.000643  0.553495  0.366851  -0.149218
    C   C184  0.443127  0.001218  0.366855  -0.140117
    H   H97   0.499102  0.902934  0.855566  0.136890
    H   H98   0.100445  0.498555  0.855571  0.134135
    H   H99   0.502841  0.100259  0.855540  0.132164
    H   H100  0.903120  0.502295  0.855534  0.136365
    H   H101  0.997163  0.399749  0.355539  0.132056
    H   H102  0.596870  0.997701  0.355533  0.136360
    H   H103  0.000901  0.597074  0.355567  0.137052
    H   H104  0.399545  0.001441  0.355572  0.134035
    C   C185  0.498400  0.946519  0.896238  -0.030268
    C   C186  0.056845  0.497842  0.896245  -0.038589
    C   C187  0.503169  0.056727  0.896232  -0.041395
    C   C188  0.946637  0.502612  0.896223  -0.028095
    C   C189  0.996834  0.443280  0.396231  -0.041271
    C   C190  0.553355  0.997386  0.396223  -0.027984
    C   C191  0.001603  0.553488  0.396238  -0.029811
    C   C192  0.443147  0.002157  0.396246  -0.038561
    H   H105  0.496603  0.902751  0.907311  0.098339
    H   H106  0.100608  0.496157  0.907328  0.098754
    H   H107  0.504745  0.100506  0.907304  0.098335
    H   H108  0.902852  0.504299  0.907287  0.097918
    H   H109  0.995259  0.399500  0.407303  0.098289
    H   H110  0.597141  0.995699  0.407286  0.097843
    H   H111  0.003399  0.597256  0.407312  0.098204
    H   H112  0.399385  0.003842  0.407329  0.098760
    O   O49   0.500389  0.054891  0.955724  -0.699473
    O   O50   0.948334  0.500219  0.955698  -0.718812
    O   O51   0.500274  0.948288  0.955709  -0.718392
    O   O52   0.054938  0.500095  0.955734  -0.699970
    O   O53   0.999727  0.551717  0.455709  -0.718341
    O   O54   0.445057  0.999907  0.455735  -0.699983
    O   O55   0.999612  0.445114  0.455723  -0.699517
    O   O56   0.551661  0.999783  0.455698  -0.718653
    C   C193  0.500990  0.001593  0.851962  0.124066
    C   C194  0.001785  0.500446  0.851962  0.127620
    C   C195  0.999014  0.498416  0.351962  0.123790
    C   C196  0.498205  0.999550  0.351962  0.127285
    C   C197  0.050300  0.481164  0.129472  -0.176432
    C   C198  0.517357  0.050409  0.129516  -0.176131
    C   C199  0.946315  0.517912  0.129531  -0.180411
    C   C200  0.480613  0.946423  0.129487  -0.176333
    C   C201  0.553686  0.982099  0.629531  -0.179996
    C   C202  0.019378  0.553575  0.629487  -0.175893
    C   C203  0.449702  0.018848  0.629473  -0.176216
    C   C204  0.982635  0.449588  0.629516  -0.175831
    H   H113  0.091028  0.465624  0.140749  0.136878
    H   H114  0.532743  0.091146  0.140831  0.137367
    H   H115  0.905603  0.533321  0.140858  0.138424
    H   H116  0.465055  0.905719  0.140776  0.136964
    H   H117  0.594398  0.966690  0.640858  0.138346
    H   H118  0.034936  0.594278  0.640777  0.136896
    H   H119  0.408974  0.034388  0.640749  0.136892
    H   H120  0.967248  0.408851  0.640830  0.137324
    C   C205  0.050562  0.482046  0.100079  -0.063258
    C   C206  0.516881  0.050644  0.100120  -0.063888
    C   C207  0.946019  0.517370  0.100131  -0.060675
    C   C208  0.481562  0.946100  0.100090  -0.062062
    C   C209  0.553982  0.982639  0.600131  -0.060847
    C   C210  0.018431  0.553899  0.600090  -0.062924
    C   C211  0.449439  0.017964  0.600079  -0.063274
    C   C212  0.983112  0.449354  0.600120  -0.064362
    H   H121  0.091705  0.467433  0.088877  0.119538
    H   H122  0.531642  0.091779  0.088953  0.119623
    H   H123  0.904867  0.532099  0.088969  0.118566
    H   H124  0.466984  0.904938  0.088893  0.119172
    H   H125  0.595133  0.967909  0.588968  0.118571
    H   H126  0.033009  0.595060  0.588894  0.119444
    H   H127  0.408296  0.032577  0.588877  0.119527
    H   H128  0.968352  0.408220  0.588952  0.119722
    C   C213  0.998288  0.499805  0.085272  0.001255
    C   C214  0.499338  0.998353  0.085272  0.004055
    C   C215  0.501712  0.000203  0.585272  0.001200
    C   C216  0.000655  0.501646  0.585272  0.004686
    C   C217  0.954599  0.467368  0.189180  0.435331
    C   C218  0.530435  0.954730  0.189258  0.421997
    C   C219  0.042266  0.531126  0.189192  0.434207
    C   C220  0.466675  0.042395  0.189113  0.424138
    C   C221  0.457735  0.968886  0.689192  0.434343
    C   C222  0.033314  0.457600  0.689113  0.424075
    C   C223  0.545403  0.032644  0.689180  0.436037
    C   C224  0.969554  0.545265  0.689258  0.421963
    C   C225  0.998324  0.499464  0.144381  0.208965
    C   C226  0.498860  0.998443  0.144381  0.201837
    C   C227  0.501678  0.000547  0.644381  0.208631
    C   C228  0.001131  0.501554  0.644381  0.201705
    N   N5    0.998381  0.499331  0.174872  -0.160186
    N   N6    0.498629  0.998505  0.174871  -0.144962
    N   N7    0.501621  0.000680  0.674872  -0.160543
    N   N8    0.001360  0.501491  0.674871  -0.145014
    O   O57   0.499574  0.051711  0.040740  -0.727828
    O   O58   0.945001  0.499880  0.040715  -0.714334
    O   O59   0.499808  0.945027  0.040726  -0.714814
    O   O60   0.051685  0.500105  0.040750  -0.727145
    O   O61   0.000188  0.554974  0.540726  -0.714828
    O   O62   0.448313  0.999901  0.540751  -0.727150
    O   O63   0.000422  0.448290  0.540739  -0.727830
    O   O64   0.554997  0.000126  0.540715  -0.714264
    C   C229  0.043500  0.530583  0.218677  -0.105590
    C   C230  0.466902  0.043648  0.218600  -0.099218
    C   C231  0.953606  0.467534  0.218670  -0.112962
    C   C232  0.529954  0.953756  0.218747  -0.091287
    C   C233  0.546397  0.032477  0.718670  -0.113332
    C   C234  0.970034  0.546239  0.718747  -0.090766
    C   C235  0.456502  0.969428  0.718677  -0.105709
    C   C236  0.033086  0.456347  0.718600  -0.099391
    C   C237  0.998616  0.498961  0.233458  0.124847
    C   C238  0.498376  0.998780  0.233458  0.106538
    C   C239  0.501387  0.001050  0.733458  0.125019
    C   C240  0.001612  0.501215  0.733458  0.106360
    C   C241  0.499573  0.998347  0.054054  0.691641
    C   C242  0.998310  0.499975  0.054054  0.693544
    C   C243  0.000423  0.501653  0.554054  0.691498
    C   C244  0.501689  0.000032  0.554054  0.693585
    C   C245  0.089113  0.561761  0.233484  -0.070760
    C   C246  0.435573  0.089273  0.233331  -0.071821
    C   C247  0.908123  0.436160  0.233474  -0.063327
    C   C248  0.561177  0.908286  0.233626  -0.073342
    C   C249  0.591880  0.063851  0.733474  -0.063714
    C   C250  0.938811  0.591709  0.733626  -0.074109
    C   C251  0.410889  0.938251  0.733484  -0.070716
    C   C252  0.064415  0.410722  0.733331  -0.071661
    C   C253  0.500695  0.001627  0.911111  0.050490
    C   C254  0.001723  0.500189  0.911110  0.047783
    C   C255  0.999309  0.498379  0.411110  0.050158
    C   C256  0.498270  0.999810  0.411110  0.047666
    C   C257  0.592325  0.063210  0.762860  -0.031832
    C   C258  0.939729  0.592113  0.763010  -0.025905
    C   C259  0.410195  0.939270  0.762864  -0.027652
    C   C260  0.063673  0.409987  0.762714  -0.028138
    C   C261  0.089807  0.560742  0.262864  -0.027713
    C   C262  0.436315  0.090008  0.262714  -0.027690
    C   C263  0.907678  0.436801  0.262860  -0.031977
    C   C264  0.560259  0.907881  0.263010  -0.026348
    C   C265  0.546742  0.031988  0.777668  -0.128919
    C   C266  0.971076  0.546501  0.777741  -0.133743
    C   C267  0.455660  0.970671  0.777667  -0.129549
    C   C268  0.032395  0.455420  0.777594  -0.127401
    C   C269  0.044343  0.529340  0.277667  -0.129340
    C   C270  0.467593  0.044574  0.277594  -0.129036
    C   C271  0.953261  0.468022  0.277668  -0.129064
    C   C272  0.528911  0.953494  0.277741  -0.133783
    C   C273  0.902184  0.231867  0.082561  0.237838
    C   C274  0.928922  0.213727  0.111320  -0.292510
    H   H129  0.892241  0.193845  0.125081  0.064090
    H   H130  0.967441  0.180450  0.108610  0.062139
    H   H131  0.947427  0.255749  0.121840  0.056194
    H   H132  0.939732  0.250278  0.068860  -0.040136
    H   H133  0.868054  0.269306  0.086190  -0.009289
    C   C275  0.769461  0.902526  0.083210  0.240305
    C   C276  0.787965  0.929187  0.111935  -0.283716
    H   H134  0.807951  0.892453  0.125634  0.061386
    H   H135  0.821266  0.967665  0.109161  0.059920
    H   H136  0.746090  0.947732  0.122564  0.053787
    H   H137  0.750927  0.940119  0.069571  -0.042368
    H   H138  0.732030  0.868427  0.086916  -0.010624
    C   C277  0.097839  0.768766  0.082544  0.251050
    C   C278  0.072024  0.786811  0.111495  -0.293526
    H   H139  0.109186  0.806460  0.125051  0.064107
    H   H140  0.033555  0.820253  0.109080  0.061760
    H   H141  0.053670  0.744788  0.122071  0.056343
    H   H142  0.059817  0.750674  0.069034  -0.045277
    H   H143  0.131853  0.731105  0.085905  -0.013272
    C   C279  0.232552  0.098159  0.081887  0.245931
    C   C280  0.214876  0.072281  0.110874  -0.293565
    H   H144  0.195335  0.109399  0.124489  0.064546
    H   H145  0.181458  0.033773  0.108529  0.061508
    H   H146  0.257044  0.053967  0.121341  0.057030
    H   H147  0.250508  0.060172  0.068317  -0.043037
    H   H148  0.270227  0.132195  0.085164  -0.011802
    C   C281  0.402161  0.731234  0.582548  0.251169
    C   C282  0.427979  0.713186  0.611498  -0.293565
    H   H149  0.390818  0.693536  0.625054  0.064116
    H   H150  0.466447  0.679745  0.609081  0.061746
    H   H151  0.446333  0.755209  0.622073  0.056362
    H   H152  0.440181  0.749328  0.569037  -0.045330
    H   H153  0.368146  0.768894  0.585910  -0.013298
    C   C283  0.267456  0.401845  0.581892  0.247334
    C   C284  0.285136  0.427723  0.610879  -0.293456
    H   H154  0.304678  0.390605  0.624493  0.064400
    H   H155  0.318555  0.466230  0.608532  0.061452
    H   H156  0.242969  0.446037  0.621346  0.056882
    H   H157  0.249499  0.439832  0.568322  -0.043517
    H   H158  0.229781  0.367809  0.585170  -0.012136
    C   C285  0.597817  0.268131  0.582557  0.238420
    C   C286  0.571083  0.286268  0.611317  -0.292653
    H   H159  0.607766  0.306148  0.625078  0.064071
    H   H160  0.532564  0.319545  0.608609  0.062215
    H   H161  0.552579  0.244245  0.621837  0.056206
    H   H162  0.560266  0.249722  0.568857  -0.040305
    H   H163  0.631947  0.230691  0.586184  -0.009469
    C   C287  0.730544  0.597478  0.583207  0.240457
    C   C288  0.712043  0.570815  0.611932  -0.284324
    H   H164  0.692058  0.607548  0.625631  0.061540
    H   H165  0.678742  0.532337  0.609158  0.060101
    H   H166  0.753919  0.552271  0.622560  0.053935
    H   H167  0.749077  0.559885  0.569567  -0.042392
    H   H168  0.767975  0.631577  0.586913  -0.010627
    C   C289  0.698895  0.734680  0.955586  0.142712
    C   C290  0.673179  0.690767  0.933282  -0.200087
    H   H169  0.622062  0.694470  0.932382  0.044215
    H   H170  0.693963  0.700665  0.912136  0.047431
    H   H171  0.685393  0.642763  0.939378  0.041745
    H   H172  0.749750  0.728495  0.956599  -0.015517
    H   H173  0.679156  0.721995  0.976620  -0.010254
    C   C291  0.263680  0.698158  0.953739  0.134553
    C   C292  0.306725  0.672588  0.931042  -0.193038
    H   H174  0.302551  0.621528  0.929914  0.042844
    H   H175  0.296403  0.693948  0.910062  0.046088
    H   H176  0.355003  0.684249  0.936903  0.040172
    H   H177  0.270303  0.748937  0.954952  -0.013370
    H   H178  0.276823  0.677849  0.974598  -0.008421
    C   C293  0.301760  0.263467  0.953066  0.136747
    C   C294  0.327466  0.306383  0.930351  -0.200097
    H   H179  0.378546  0.302310  0.929339  0.043702
    H   H180  0.306339  0.295847  0.909343  0.048425
    H   H181  0.315645  0.354684  0.936103  0.042744
    H   H182  0.250955  0.269993  0.954159  -0.013961
    H   H183  0.321831  0.276821  0.973945  -0.008733
    C   C295  0.734883  0.301045  0.954913  0.135854
    C   C296  0.691097  0.326896  0.932589  -0.202165
    H   H184  0.694710  0.378028  0.931801  0.044228
    H   H185  0.701201  0.306337  0.911417  0.048643
    H   H186  0.643068  0.314532  0.938579  0.043490
    H   H187  0.728786  0.250168  0.955809  -0.013447
    H   H188  0.721994  0.320553  0.975966  -0.007973
    C   C297  0.198238  0.236533  0.453072  0.136901
    C   C298  0.172531  0.193614  0.430357  -0.199723
    H   H189  0.121452  0.197689  0.429345  0.043630
    H   H190  0.193659  0.204148  0.409349  0.048299
    H   H191  0.184352  0.145314  0.436111  0.042615
    H   H192  0.249043  0.230006  0.454166  -0.013956
    H   H193  0.178166  0.223181  0.473951  -0.008823
    C   C299  0.765108  0.198957  0.454904  0.135857
    C   C300  0.808891  0.173105  0.432579  -0.201900
    H   H194  0.805277  0.121973  0.431792  0.044199
    H   H195  0.798785  0.193664  0.411407  0.048564
    H   H196  0.856921  0.185469  0.438568  0.043412
    H   H197  0.771205  0.249834  0.455800  -0.013427
    H   H198  0.778000  0.179450  0.475958  -0.008018
    C   C301  0.801103  0.765322  0.455583  0.142623
    C   C302  0.826818  0.809235  0.433279  -0.199905
    H   H199  0.877936  0.805533  0.432379  0.044151
    H   H200  0.806034  0.799336  0.412133  0.047346
    H   H201  0.814603  0.857239  0.439375  0.041725
    H   H202  0.750247  0.771507  0.456595  -0.015478
    H   H203  0.820840  0.778008  0.476617  -0.010242
    C   C303  0.236312  0.801845  0.453747  0.134804
    C   C304  0.193265  0.827414  0.431050  -0.193166
    H   H204  0.197438  0.878474  0.429922  0.042866
    H   H205  0.203585  0.806053  0.410070  0.046080
    H   H206  0.144987  0.815753  0.436912  0.040225
    H   H207  0.229689  0.751065  0.454960  -0.013416
    H   H208  0.223171  0.822154  0.474605  -0.008536
