# Generated by REPEAT Assigner based on pymatgen
data_DB1-Cu2O8N2-irmof20_A-irmof8_A_No121
_audit_creation_date              2022-05-24
_audit_creation_method            REPEAT_Assigner
_cell_length_a                    25.491400
_cell_length_b                    12.501100
_cell_length_c                    10.828700
_cell_angle_alpha                 89.999100
_cell_angle_beta                  89.998900
_cell_angle_gamma                 89.886400
_cell_volume                      3450.780899
_symmetry_space_group_name_H-M    P1
_symmetry_Int_Tables_number       1
loop_
    _symmetry_equiv_pos_site_id
    _symmetry_equiv_pos_as_xyz
    1  x,y,z
loop_
    _atom_site_type_symbol
    _atom_site_label
    _atom_site_fract_x
    _atom_site_fract_y
    _atom_site_fract_z
    _atom_type_partial_charge
    Cu  Cu1  0.500000  0.499990  0.382480  0.980921
    Cu  Cu2  0.500000  0.499990  0.617520  0.887508
    O   O1   0.568210  0.499990  0.390400  -0.501692
    O   O2   0.431650  0.500320  0.390410  -0.576242
    O   O3   0.499870  0.639380  0.390400  -0.540877
    O   O4   0.499990  0.360920  0.390410  -0.456042
    O   O5   0.500110  0.360610  0.609600  -0.562663
    O   O6   0.500030  0.639070  0.609590  -0.554030
    O   O7   0.431740  0.500150  0.609600  -0.483103
    O   O8   0.568350  0.499640  0.609590  -0.403517
    C   C1   0.598390  0.499790  0.500000  0.440275
    C   C2   0.401620  0.500190  0.500010  0.595699
    C   C3   0.499960  0.700620  0.500000  0.621820
    C   C4   0.500050  0.299370  0.500010  0.560045
    Cu  Cu3  0.009600  0.499330  0.617570  0.821882
    Cu  Cu4  0.009600  0.500090  0.382530  1.091530
    O   O9   0.941390  0.499430  0.609650  -0.478127
    O   O10  0.077950  0.499610  0.609640  -0.545315
    O   O11  0.009490  0.638750  0.610240  -0.506267
    O   O12  0.009840  0.360290  0.609050  -0.430377
    O   O13  0.009720  0.360680  0.389860  -0.580920
    O   O14  0.009340  0.639140  0.391040  -0.530969
    O   O15  0.077860  0.500150  0.390450  -0.597445
    O   O16  0.941250  0.499780  0.390450  -0.476058
    C   C5   0.911210  0.499620  0.500050  0.447134
    C   C6   0.107980  0.499800  0.500040  0.603798
    C   C7   0.009300  0.700330  0.500900  0.586015
    C   C8   0.009890  0.299090  0.499190  0.556262
    C   C9   0.529450  0.439920  0.872250  0.146414
    S   S1   0.457510  0.586690  0.866540  0.214478
    C   C10  0.470560  0.560070  0.127750  0.135692
    H   H1   0.445920  0.610320  0.153620  0.121718
    S   S2   0.542500  0.413300  0.133460  0.163302
    N   N1   0.500000  0.499990  0.792180  -0.177497
    N   N2   0.500000  0.499990  0.207820  -0.235013
    C   C11  0.481030  0.538700  0.000000  -0.051973
    C   C12  0.518980  0.461290  0.000000  -0.074546
    C   C13  0.499920  0.889340  0.402050  0.091780
    S   S3   0.500090  0.884390  0.641360  0.064687
    C   C14  0.500090  0.110650  0.597960  -0.108980
    H   H2   0.500150  0.133060  0.679900  0.152424
    S   S4   0.499920  0.115600  0.358640  0.026972
    C   C15  0.499980  0.819980  0.500000  -0.229664
    C   C16  0.500030  0.180010  0.500000  -0.150085
    C   C17  0.500050  0.999990  0.563120  0.060960
    C   C18  0.499960  -0.000000  0.436880  0.036169
    C   C19  0.817710  0.499530  0.590420  -0.053437
    C   C20  0.837320  0.499860  0.374280  -0.020909
    C   C21  0.784080  0.499950  0.340870  -0.142090
    C   C22  0.746540  0.499810  0.437540  0.174058
    C   C23  0.691880  0.499890  0.409620  -0.044504
    C   C24  0.672280  0.499550  0.625770  -0.018662
    C   C25  0.725520  0.499470  0.659180  -0.136540
    C   C26  0.763060  0.499600  0.562510  0.169997
    C   C27  0.853130  0.499650  0.500040  -0.019831
    C   C28  0.656470  0.499760  0.500010  -0.031932
    H   H3   0.867030  0.499950  0.303030  0.067632
    H   H4   0.642570  0.499460  0.697000  0.056211
    C   C29  0.309070  0.500000  0.597970  0.095838
    S   S5   0.311490  0.500180  0.358650  0.081649
    C   C30  0.200530  0.500000  0.402080  -0.154488
    H   H5   0.189540  0.500050  0.320130  0.159078
    S   S6   0.198110  0.499820  0.641390  0.043034
    C   C31  0.343080  0.500120  0.500010  -0.236689
    C   C32  0.166520  0.499880  0.500030  -0.144445
    C   C33  0.254800  0.500050  0.436910  0.069634
    C   C34  0.254800  0.499950  0.563140  0.020514
    C   C35  0.980250  0.440870  0.127540  0.160053
    S   S7   0.051950  0.587540  0.133880  0.173087
    C   C36  0.038940  0.561770  0.872560  0.108082
    H   H6   0.063490  0.612080  0.846900  0.135819
    S   S8   0.967240  0.415100  0.866220  0.160666
    N   N3   0.009600  0.500650  0.207860  -0.217036
    N   N4   0.009600  0.501990  0.792230  -0.185275
    C   C37  0.028500  0.540010  0.000210  -0.050547
    C   C38  0.990690  0.462630  0.999880  -0.072639
    C   C39  0.009030  0.888740  0.599650  0.072408
    S   S9   0.008870  0.884560  0.360310  0.075865
    C   C40  0.008480  0.110680  0.404680  -0.108670
    H   H7   0.008380  0.133350  0.322830  0.149537
    S   S10  0.008650  0.114860  0.644020  0.020746
    C   C41  0.009090  0.819700  0.501410  -0.218062
    C   C42  0.008430  0.179720  0.502930  -0.141012
    C   C43  0.008710  0.999910  0.439050  0.045724
    C   C44  0.008800  0.999510  0.565280  0.049557
    Cl  Cl1  0.576040  0.344870  0.823320  -0.007323
    Cl  Cl2  0.499800  0.846960  0.247060  -0.069076
    Cl  Cl3  0.329860  0.499910  0.752960  -0.080908
    Cl  Cl4  0.933820  0.345710  0.176070  -0.007536
    Cl  Cl5  0.009220  0.845860  0.754460  -0.057863
    Cl  Cl6  0.745830  0.499200  0.814520  -0.004906
    Cl  Cl7  0.837480  0.499230  0.746150  -0.007135
    Cl  Cl8  0.763770  0.500200  0.185530  -0.007590
    Cl  Cl9  0.672110  0.500190  0.253900  -0.006169
