# Generated by REPEAT Assigner based on pymatgen
data_DB1-Cu2N8-AZO_B-irmof20_B_No204
_audit_creation_date              2022-05-24
_audit_creation_method            REPEAT_Assigner
_cell_length_a                    15.188000
_cell_length_b                    19.686400
_cell_length_c                    7.052800
_cell_angle_alpha                 82.558800
_cell_angle_beta                  103.426000
_cell_angle_gamma                 66.734100
_cell_volume                      1825.680134
_symmetry_space_group_name_H-M    P1
_symmetry_Int_Tables_number       1
loop_
    _symmetry_equiv_pos_site_id
    _symmetry_equiv_pos_as_xyz
    1  x,y,z
loop_
    _atom_site_type_symbol
    _atom_site_label
    _atom_site_fract_x
    _atom_site_fract_y
    _atom_site_fract_z
    _atom_type_partial_charge
    Cu  Cu1  0.500000  0.500000  0.000000  0.404150
    Cu  Cu2  0.500000  0.500000  0.500000  0.312925
    N   N1   0.613300  0.499350  0.213090  0.018722
    N   N2   0.696540  0.500240  0.191080  -0.400224
    N   N3   0.500830  0.414260  0.375210  0.111699
    N   N4   0.499620  0.351280  0.460680  -0.358472
    N   N5   0.386690  0.500650  0.599310  0.136963
    N   N6   0.303460  0.499760  0.494720  -0.557334
    N   N7   0.499160  0.585740  0.812390  -0.092140
    N   N8   0.500370  0.648720  0.853520  -0.204270
    N   N9   0.386690  0.500650  0.786910  0.028592
    N   N10  0.303460  0.499760  0.808920  -0.509408
    N   N11  0.499160  0.585740  0.624790  0.121164
    N   N12  0.500370  0.648720  0.539320  -0.444494
    N   N13  0.613300  0.499350  0.400690  0.051644
    N   N14  0.696540  0.500240  0.505280  -0.428494
    N   N15  0.500830  0.414260  0.187610  -0.096049
    N   N16  0.499620  0.351280  0.146480  -0.001540
    C   C1   0.746540  0.500200  0.373200  0.760366
    C   C2   0.499660  0.313440  0.317270  0.391777
    C   C3   0.253460  0.499800  0.626800  0.847561
    C   C4   0.500330  0.686560  0.682730  0.650689
    C   C5   0.499750  0.236950  0.344960  -0.104798
    C   C6   0.499790  0.200000  0.530110  -0.157718
    C   C7   0.499860  0.128160  0.555650  -0.109362
    C   C8   0.499900  0.091820  0.396830  0.456928
    C   C9   0.499860  0.128260  0.212660  -0.339401
    C   C10  0.499790  0.200060  0.186470  -0.025387
    N   N17  0.499980  0.018240  0.418400  -0.270158
    N   N18  0.500020  0.981760  0.581600  -0.260674
    C   C11  0.500130  0.871740  0.787340  -0.420683
    C   C12  0.500100  0.908180  0.603170  0.473369
    C   C13  0.500130  0.871840  0.444350  -0.154439
    C   C14  0.500210  0.800010  0.469900  -0.025949
    C   C15  0.500250  0.763050  0.655050  -0.375269
    C   C16  0.500210  0.799940  0.813540  0.223272
    H   H1   0.499760  0.227030  0.654410  0.243020
    H   H2   0.499890  0.100720  0.698760  0.059199
    H   H3   0.499890  0.100720  0.089460  0.103919
    H   H4   0.500110  0.899280  0.910540  0.123409
    H   H5   0.500110  0.899280  0.301240  0.067649
    H   H6   0.500240  0.772970  0.345590  0.214681
    C   C17  0.906310  0.500080  0.603530  0.143226
    S   S1   0.902120  0.500080  0.233990  -0.039870
    C   C18  0.093680  0.499920  0.396470  -0.213024
    H   H7   0.112660  0.499910  0.280150  0.178675
    S   S2   0.097870  0.499920  0.766010  0.006217
    C   C19  0.847590  0.500120  0.423750  -0.351551
    C   C20  0.152400  0.499880  0.576250  -0.277953
    C   C21  -0.000000  0.500000  0.403090  0.114552
    C   C22  -0.000000  0.500000  0.596910  -0.004672
    C   C23  0.499750  0.238010  0.984810  0.626178
    O   O1   0.455720  0.224600  0.817580  -0.444785
    O   O2   0.538150  0.282510  0.976690  -0.519975
    H   H8   0.439820  0.180360  0.857040  0.323236
    C   C24  0.500250  0.761990  0.015190  0.359814
    O   O3   0.456170  0.804740  0.127760  -0.436975
    O   O4   0.538780  0.691870  0.071030  -0.301869
    H   H9   0.440160  0.859610  0.068510  0.339433
    C   C25  0.874660  0.500100  0.797590  -0.479420
    H   H10  0.865060  0.455340  0.832990  0.101244
    H   H11  0.926520  0.500180  0.905400  0.259391
    H   H12  0.812830  0.544800  0.774390  0.152692
