data_DB1-Cu2O8-irmof8_A-NiC4_No13_repeat
_audit_creation_date              2024-02-23
_audit_creation_method            'Materials Studio'
_symmetry_space_group_name_H-M    'P1'
_symmetry_Int_Tables_number       1
_symmetry_cell_setting            triclinic
loop_
_symmetry_equiv_pos_as_xyz
  x,y,z
_cell_length_a                    25.9805
_cell_length_b                    18.3596
_cell_length_c                    10.0000
_cell_angle_alpha                 90.0000
_cell_angle_beta                  90.0000
_cell_angle_gamma                 134.9660
loop_
_atom_site_label
_atom_site_type_symbol
_atom_site_fract_x
_atom_site_fract_y
_atom_site_fract_z
_atom_site_U_iso_or_equiv
_atom_site_adp_type
_atom_site_occupancy
Cu1    Cu    0.49998   0.49995   0.62726   0.00000  Uiso   1.00
Cu2    Cu    0.50002   0.50004   0.37274   0.00000  Uiso   1.00
O1     O     0.43299   0.36610   0.61860   0.00000  Uiso   1.00
O2     O     0.56695   0.63408   0.61876   0.00000  Uiso   1.00
O3     O     0.43305   0.50024   0.61868   0.00000  Uiso   1.00
O4     O     0.56689   0.49994   0.61868   0.00000  Uiso   1.00
O5     O     0.56696   0.49979   0.38132   0.00000  Uiso   1.00
O6     O     0.43309   0.50002   0.38132   0.00000  Uiso   1.00
O7     O     0.56700   0.63400   0.38140   0.00000  Uiso   1.00
O8     O     0.43306   0.36591   0.38124   0.00000  Uiso   1.00
C1     C     0.40346   0.30692   0.49988   0.00000  Uiso   1.00
C2     C     0.59654   0.69307   0.50011   0.00000  Uiso   1.00
C3     C     0.40353   0.50013   0.50000   0.00000  Uiso   1.00
C4     C     0.59647   0.49986   0.50000   0.00000  Uiso   1.00
Cu3    Cu    0.99989   0.49977   0.37271   0.00000  Uiso   1.00
Cu4    Cu    0.00009   0.50018   0.62723   0.00000  Uiso   1.00
O9     O     0.93319   0.36593   0.38166   0.00000  Uiso   1.00
O10    O     0.06688   0.63391   0.38092   0.00000  Uiso   1.00
O11    O     0.06710   0.50006   0.38129   0.00000  Uiso   1.00
O12    O     0.93297   0.49977   0.38129   0.00000  Uiso   1.00
O13    O     0.93289   0.49992   0.61865   0.00000  Uiso   1.00
O14    O     0.06699   0.50014   0.61865   0.00000  Uiso   1.00
O15    O     0.06692   0.63413   0.61828   0.00000  Uiso   1.00
O16    O     0.93308   0.36604   0.61902   0.00000  Uiso   1.00
C5     C     0.90369   0.30690   0.50051   0.00000  Uiso   1.00
C6     C     0.09629   0.69305   0.49944   0.00000  Uiso   1.00
C7     C     0.09659   0.50010   0.49997   0.00000  Uiso   1.00
C8     C     0.90339   0.49985   0.49997   0.00000  Uiso   1.00
C9     C     0.81163   0.49979   0.40210   0.00000  Uiso   1.00
C10    C     0.83093   0.49994   0.63616   0.00000  Uiso   1.00
C11    C     0.77871   0.49996   0.67233   0.00000  Uiso   1.00
C12    C     0.74184   0.49990   0.56765   0.00000  Uiso   1.00
C13    C     0.68823   0.49992   0.59787   0.00000  Uiso   1.00
C14    C     0.66892   0.49977   0.36381   0.00000  Uiso   1.00
C15    C     0.72115   0.49975   0.32764   0.00000  Uiso   1.00
C16    C     0.75801   0.49981   0.43232   0.00000  Uiso   1.00
C17    C     0.84641   0.49985   0.49998   0.00000  Uiso   1.00
C18    C     0.65345   0.49986   0.49999   0.00000  Uiso   1.00
H1     H     0.86011   0.50000   0.71331   0.00000  Uiso   1.00
H2     H     0.63975   0.49972   0.28668   0.00000  Uiso   1.00
C19    C     0.18828   0.50001   0.40210   0.00000  Uiso   1.00
C20    C     0.16916   0.50023   0.63616   0.00000  Uiso   1.00
C21    C     0.22141   0.50027   0.67233   0.00000  Uiso   1.00
C22    C     0.25820   0.50018   0.56765   0.00000  Uiso   1.00
C23    C     0.31184   0.50021   0.59787   0.00000  Uiso   1.00
C24    C     0.33096   0.49999   0.36381   0.00000  Uiso   1.00
C25    C     0.27871   0.49995   0.32764   0.00000  Uiso   1.00
C26    C     0.24192   0.50005   0.43232   0.00000  Uiso   1.00
C27    C     0.15357   0.50010   0.49998   0.00000  Uiso   1.00
C28    C     0.34654   0.50012   0.49999   0.00000  Uiso   1.00
H3     H     0.14004   0.50029   0.71331   0.00000  Uiso   1.00
H4     H     0.36008   0.49993   0.28668   0.00000  Uiso   1.00
C29    C     0.18819   0.87656   0.40169   0.00000  Uiso   1.00
C30    C     0.16873   0.83800   0.63572   0.00000  Uiso   1.00
C31    C     0.22097   0.94246   0.67197   0.00000  Uiso   1.00
C32    C     0.25793   0.01617   0.56734   0.00000  Uiso   1.00
C33    C     0.31157   0.12341   0.59763   0.00000  Uiso   1.00
C34    C     0.33103   0.16197   0.36360   0.00000  Uiso   1.00
C35    C     0.27878   0.05751   0.32735   0.00000  Uiso   1.00
C36    C     0.24183   0.98380   0.43198   0.00000  Uiso   1.00
C37    C     0.15332   0.80702   0.49952   0.00000  Uiso   1.00
C38    C     0.34643   0.19295   0.49980   0.00000  Uiso   1.00
H5     H     0.13949   0.77968   0.71283   0.00000  Uiso   1.00
H6     H     0.36027   0.22030   0.28650   0.00000  Uiso   1.00
C39    C     0.81205   0.12344   0.59824   0.00000  Uiso   1.00
C40    C     0.83143   0.16197   0.36420   0.00000  Uiso   1.00
C41    C     0.77912   0.05751   0.32797   0.00000  Uiso   1.00
C42    C     0.74218   0.98381   0.43262   0.00000  Uiso   1.00
C43    C     0.68847   0.87657   0.40234   0.00000  Uiso   1.00
C44    C     0.66910   0.83804   0.63638   0.00000  Uiso   1.00
C45    C     0.72140   0.94250   0.67261   0.00000  Uiso   1.00
C46    C     0.75835   0.01620   0.56796   0.00000  Uiso   1.00
C47    C     0.84691   0.19297   0.50040   0.00000  Uiso   1.00
C48    C     0.65362   0.80704   0.50018   0.00000  Uiso   1.00
H7     H     0.86067   0.22030   0.28709   0.00000  Uiso   1.00
H8     H     0.63986   0.77971   0.71348   0.00000  Uiso   1.00
H9     H     0.74510   0.44913   0.15101   0.00000  Uiso   1.00
H10    H     0.74385   0.55012   0.10955   0.00000  Uiso   1.00
N1     N     0.73821   0.49966   0.18332   0.00000  Uiso   1.00
H11    H     0.83504   0.44921   0.22441   0.00000  Uiso   1.00
H12    H     0.83364   0.55019   0.18409   0.00000  Uiso   1.00
N2     N     0.82824   0.49972   0.25743   0.00000  Uiso   1.00
H13    H     0.70432   0.44959   0.84908   0.00000  Uiso   1.00
H14    H     0.80647   0.55062   0.89031   0.00000  Uiso   1.00
N3     N     0.76166   0.50007   0.81665   0.00000  Uiso   1.00
H15    H     0.61437   0.44948   0.77564   0.00000  Uiso   1.00
H16    H     0.71665   0.55053   0.81580   0.00000  Uiso   1.00
N4     N     0.67162   0.49998   0.74255   0.00000  Uiso   1.00
H17    H     0.25461   0.55029   0.15087   0.00000  Uiso   1.00
H18    H     0.25584   0.44924   0.10969   0.00000  Uiso   1.00
N5     N     0.26153   0.49981   0.18332   0.00000  Uiso   1.00
H19    H     0.16472   0.55031   0.22428   0.00000  Uiso   1.00
H20    H     0.16609   0.44927   0.18422   0.00000  Uiso   1.00
N6     N     0.17155   0.49985   0.25743   0.00000  Uiso   1.00
H21    H     0.29594   0.55093   0.84895   0.00000  Uiso   1.00
H22    H     0.19382   0.44995   0.89044   0.00000  Uiso   1.00
N7     N     0.23857   0.50040   0.81665   0.00000  Uiso   1.00
H23    H     0.38584   0.55094   0.77551   0.00000  Uiso   1.00
H24    H     0.28359   0.44994   0.81593   0.00000  Uiso   1.00
N8     N     0.32857   0.50038   0.74254   0.00000  Uiso   1.00
H25    H     0.20447   0.95920   0.15048   0.00000  Uiso   1.00
H26    H     0.30665   0.06241   0.10944   0.00000  Uiso   1.00
N9     N     0.26180   0.02336   0.18301   0.00000  Uiso   1.00
H27    H     0.11445   0.77937   0.22376   0.00000  Uiso   1.00
H28    H     0.21676   0.88285   0.18386   0.00000  Uiso   1.00
N10    N     0.17168   0.84333   0.25699   0.00000  Uiso   1.00
H29    H     0.24489   0.04096   0.84861   0.00000  Uiso   1.00
H30    H     0.24352   0.93735   0.89011   0.00000  Uiso   1.00
N11    N     0.23796   0.97661   0.81631   0.00000  Uiso   1.00
H31    H     0.33488   0.22078   0.77529   0.00000  Uiso   1.00
H32    H     0.33341   0.11695   0.81573   0.00000  Uiso   1.00
N12    N     0.32808   0.15665   0.74232   0.00000  Uiso   1.00
H33    H     0.74546   0.04106   0.84929   0.00000  Uiso   1.00
H34    H     0.74402   0.93737   0.89069   0.00000  Uiso   1.00
N13    N     0.73847   0.97666   0.81694   0.00000  Uiso   1.00
H35    H     0.83556   0.22088   0.77598   0.00000  Uiso   1.00
H36    H     0.83398   0.11692   0.81625   0.00000  Uiso   1.00
N14    N     0.82867   0.15668   0.74293   0.00000  Uiso   1.00
H37    H     0.70472   0.95925   0.15117   0.00000  Uiso   1.00
H38    H     0.80688   0.06236   0.11000   0.00000  Uiso   1.00
N15    N     0.76207   0.02336   0.18364   0.00000  Uiso   1.00
H39    H     0.61461   0.77943   0.22452   0.00000  Uiso   1.00
H40    H     0.71689   0.88277   0.18442   0.00000  Uiso   1.00
N16    N     0.67186   0.84332   0.25765   0.00000  Uiso   1.00
