# Generated by REPEAT Assigner based on pymatgen
data_DB1-Zn2O8N2-irmof20_A-irmof8_A_No28
_audit_creation_date              2022-05-24
_audit_creation_method            REPEAT_Assigner
_cell_length_a                    25.892400
_cell_length_b                    12.701400
_cell_length_c                    11.716400
_cell_angle_alpha                 90.038300
_cell_angle_beta                  89.875700
_cell_angle_gamma                 89.828100
_cell_volume                      3853.142010
_symmetry_space_group_name_H-M    P1
_symmetry_Int_Tables_number       1
loop_
    _symmetry_equiv_pos_site_id
    _symmetry_equiv_pos_as_xyz
    1  x,y,z
loop_
    _atom_site_type_symbol
    _atom_site_label
    _atom_site_fract_x
    _atom_site_fract_y
    _atom_site_fract_z
    _atom_type_partial_charge
    O   O1   0.500350  0.348160  0.615900  -0.544133
    O   O2   0.500090  0.348180  0.383910  -0.613580
    C   C1   0.500150  0.294670  0.499920  0.517455
    Zn  Zn1  0.500000  0.500020  0.641480  0.998800
    O   O3   0.574470  0.499900  0.383780  -0.577992
    O   O4   0.574500  0.500050  0.615780  -0.539005
    C   C2   0.600740  0.499880  0.499810  0.516571
    O   O5   0.499750  0.651870  0.384100  -0.532546
    O   O6   0.499810  0.651850  0.616090  -0.626206
    C   C3   0.499810  0.705360  0.500080  0.515217
    Zn  Zn2  0.500000  0.500010  0.358520  1.028290
    O   O7   0.425540  0.499910  0.616220  -0.551465
    O   O8   0.425500  0.500160  0.384230  -0.577639
    C   C4   0.399270  0.499790  0.500190  0.528564
    O   O9   0.009270  0.346080  0.384130  -0.548699
    O   O10  0.009530  0.346390  0.616120  -0.618969
    C   C5   0.009540  0.292740  0.500110  0.523788
    Zn  Zn3  0.009450  0.497910  0.358540  1.006318
    O   O11  0.934990  0.498680  0.616240  -0.582244
    O   O12  0.934950  0.498540  0.384250  -0.542455
    C   C6   0.908710  0.498710  0.500210  0.517082
    O   O13  0.009530  0.650080  0.615920  -0.537369
    O   O14  0.009470  0.649770  0.383930  -0.628753
    C   C7   0.009410  0.703430  0.499940  0.518102
    Zn  Zn4  0.009450  0.498260  0.641510  1.037449
    O   O15  0.083920  0.497270  0.383800  -0.556137
    O   O16  0.083950  0.497810  0.615800  -0.581339
    C   C8   0.110190  0.497090  0.499830  0.528030
    C   C9   0.470930  0.559020  0.882120  -0.024002
    H   H1   0.446600  0.608390  0.858360  0.197493
    S   S1   0.541960  0.414850  0.876380  0.235144
    C   C10  0.529080  0.441000  0.117880  -0.032638
    H   H2   0.553410  0.391630  0.141640  0.206223
    S   S2   0.458050  0.585170  0.123620  0.238650
    N   N1   0.500000  0.500020  0.807930  -0.128763
    N   N2   0.500010  0.500010  0.192070  -0.141388
    C   C11  0.518740  0.461990  0.999880  -0.055386
    C   C12  0.481270  0.538040  0.000120  -0.044359
    C   C13  0.499940  0.891180  0.590560  -0.185920
    H   H3   0.499950  0.869190  0.666310  0.184145
    S   S3   0.499880  0.886120  0.369380  0.018199
    C   C14  0.500020  0.108850  0.409440  -0.185600
    H   H4   0.500010  0.130840  0.333700  0.182260
    S   S4   0.500080  0.113910  0.630630  0.023736
    C   C15  0.499880  0.822840  0.500050  -0.095461
    C   C16  0.500080  0.177190  0.499960  -0.098619
    C   C17  0.499960  0.999970  0.441670  0.086102
    C   C18  0.500000  0.000070  0.558340  0.073808
    C   C19  0.816770  0.499000  0.416550  0.497709
    C   C20  0.835820  0.499060  0.616350  -0.354651
    C   C21  0.783360  0.499280  0.647150  0.515721
    C   C22  0.746520  0.499360  0.557750  -0.246384
    C   C23  0.692680  0.499580  0.583470  0.506420
    C   C24  0.673640  0.499530  0.383680  -0.357463
    C   C25  0.726090  0.499310  0.352870  0.519715
    C   C26  0.762930  0.499230  0.442270  -0.242558
    C   C27  0.851540  0.498930  0.500140  -0.139689
    C   C28  0.657920  0.499660  0.499890  -0.144821
    H   H5   0.864980  0.498980  0.682230  0.171324
    H   H6   0.644470  0.499600  0.317800  0.171196
    C   C29  0.308260  0.499040  0.409550  -0.140113
    H   H7   0.319180  0.499220  0.333820  0.156526
    S   S5   0.310380  0.498820  0.630740  0.045621
    C   C30  0.201190  0.497850  0.590480  -0.144469
    H   H8   0.190280  0.497660  0.666200  0.157844
    S   S6   0.199070  0.498060  0.369290  0.045381
    C   C31  0.341640  0.499250  0.500120  -0.137904
    C   C32  0.167820  0.497630  0.499910  -0.132682
    C   C33  0.254650  0.498380  0.558350  0.064209
    C   C34  0.254800  0.498510  0.441680  0.063387
    C   C35  0.038460  0.556390  0.117900  -0.032112
    H   H9   0.062730  0.605600  0.141660  0.201200
    S   S7   0.967580  0.412760  0.123640  0.235507
    C   C36  0.980440  0.438510  0.882140  -0.042721
    H   H10  0.956170  0.389300  0.858390  0.209751
    S   S8   0.051310  0.582130  0.876410  0.238448
    N   N3   0.009450  0.497700  0.192090  -0.123076
    N   N4   0.009440  0.497200  0.807950  -0.133852
    C   C37  0.990760  0.459570  0.000140  -0.053784
    C   C38  0.028140  0.535330  0.999900  -0.044323
    C   C39  0.009070  0.889130  0.409450  -0.181684
    H   H11  0.009090  0.867040  0.333710  0.182250
    S   S9   0.009140  0.884360  0.630630  0.017413
    C   C40  0.008760  0.107040  0.590560  -0.180184
    H   H12  0.008740  0.129130  0.666300  0.181012
    S   S10  0.008690  0.111810  0.369380  0.023775
    C   C41  0.009210  0.820910  0.499960  -0.095572
    C   C42  0.008620  0.175260  0.500050  -0.103184
    C   C43  0.008930  0.998110  0.558340  0.084569
    C   C44  0.008900  0.998060  0.441670  0.072820
    H   H13  0.775650  0.550680  0.202140  0.359820
    H   H14  0.723890  0.447540  0.166780  0.344956
    N   N5   0.743400  0.499160  0.229720  -0.945450
    H   H15  0.865780  0.550330  0.264910  0.311289
    H   H16  0.813870  0.447210  0.230520  0.331377
    N   N6   0.833630  0.498840  0.293090  -0.831903
    H   H17  0.733740  0.551200  0.797900  0.360252
    H   H18  0.785630  0.447720  0.833240  0.344174
    N   N7   0.766050  0.499410  0.770300  -0.942994
    H   H19  0.643620  0.551570  0.735090  0.314094
    H   H20  0.695620  0.448070  0.769530  0.333389
    N   N8   0.675820  0.499750  0.706930  -0.840329
