# Generated by REPEAT Assigner based on pymatgen
data_DB1-Cu2O8-AZO_A-BDC_A_No354
_audit_creation_date              2022-05-24
_audit_creation_method            REPEAT_Assigner
_cell_length_a                    10.700300
_cell_length_b                    34.497600
_cell_length_c                    10.000000
_cell_angle_alpha                 90.000000
_cell_angle_beta                  90.000000
_cell_angle_gamma                 90.093700
_cell_volume                      3691.341757
_symmetry_space_group_name_H-M    P1
_symmetry_Int_Tables_number       1
loop_
    _symmetry_equiv_pos_site_id
    _symmetry_equiv_pos_as_xyz
    1  x,y,z
loop_
    _atom_site_type_symbol
    _atom_site_label
    _atom_site_fract_x
    _atom_site_fract_y
    _atom_site_fract_z
    _atom_type_partial_charge
    Cu  Cu1  0.500000  0.500000  0.627260  1.111098
    Cu  Cu2  0.500010  0.500000  0.372740  1.013009
    O   O1   0.662500  0.499970  0.618690  -0.628875
    O   O2   0.337180  0.499920  0.618670  -0.594959
    O   O3   0.499650  0.449490  0.618680  -0.348855
    O   O4   0.500020  0.550400  0.618680  -0.356599
    O   O5   0.500320  0.550510  0.381320  -0.578844
    O   O6   0.500040  0.449610  0.381320  -0.579310
    O   O7   0.337380  0.499980  0.381310  -0.514012
    O   O8   0.662840  0.500100  0.381330  -0.409434
    C   C1   0.734390  0.500030  0.500010  0.550704
    C   C2   0.265620  0.499970  0.499990  0.545990
    C   C3   0.499850  0.427300  0.500000  0.448858
    C   C4   0.500180  0.572700  0.500000  0.453701
    Cu  Cu3  0.500500  0.000000  0.275020  1.110024
    Cu  Cu4  0.499870  0.000000  0.529530  1.013879
    O   O9   0.662970  0.000190  0.284050  -0.624700
    O   O10  0.337660  0.999930  0.283140  -0.592274
    O   O11  0.500140  0.050510  0.283590  -0.350494
    O   O12  0.500490  0.949610  0.283590  -0.358262
    O   O13  0.500190  0.949490  0.520950  -0.580077
    O   O14  0.499930  0.050400  0.520960  -0.580084
    O   O15  0.337270  0.999870  0.520490  -0.511104
    O   O16  0.662720  0.000060  0.521410  -0.404527
    C   C5   0.734570  0.000210  0.402940  0.546979
    C   C6   0.265800  0.999800  0.401620  0.553577
    C   C7   0.500040  0.072700  0.402280  0.447464
    C   C8   0.500340  0.927300  0.402280  0.449941
    C   C9   0.500330  0.884040  0.402270  -0.077726
    C   C10  0.500180  0.863130  0.523420  -0.116674
    C   C11  0.500180  0.822500  0.523100  -0.171472
    C   C12  0.500330  0.801940  0.401820  0.550625
    C   C13  0.500480  0.822550  0.281220  -0.453479
    C   C14  0.500480  0.863170  0.281080  0.031351
    N   N1   0.500320  0.760320  0.398240  -0.326175
    N   N2   0.500190  0.739680  0.504030  -0.326066
    C   C15  0.500040  0.677450  0.621060  -0.455087
    C   C16  0.500190  0.698060  0.500460  0.551189
    C   C17  0.500340  0.677510  0.379170  -0.173174
    C   C18  0.500330  0.636870  0.378850  -0.111593
    C   C19  0.500180  0.615970  0.500000  -0.086411
    C   C20  0.500030  0.636840  0.621200  0.037181
    H   H1   0.500060  0.878420  0.617990  0.158845
    H   H2   0.500060  0.806980  0.617030  0.082666
    H   H3   0.500590  0.806980  0.187310  0.140011
    H   H4   0.499920  0.693030  0.714970  0.140529
    H   H5   0.500460  0.693030  0.285250  0.083166
    H   H6   0.500450  0.621580  0.284280  0.156821
    C   C21  0.500040  0.115970  0.402270  -0.077861
    C   C22  0.499840  0.136870  0.523420  -0.114927
    C   C23  0.499840  0.177510  0.523100  -0.171866
    C   C24  0.500030  0.198060  0.401820  0.549795
    C   C25  0.500230  0.177450  0.281220  -0.454228
    C   C26  0.500230  0.136840  0.281080  0.033522
    N   N3   0.500030  0.239680  0.398240  -0.325541
    N   N4   0.499860  0.260320  0.504030  -0.324693
    C   C27  0.499660  0.322550  0.621050  -0.455672
    C   C28  0.499860  0.301940  0.500460  0.550557
    C   C29  0.500050  0.322500  0.379170  -0.173738
    C   C30  0.500050  0.363130  0.378850  -0.111226
    C   C31  0.499850  0.384040  0.500000  -0.083940
    C   C32  0.499660  0.363170  0.621200  0.037676
    H   H7   0.499690  0.121580  0.617990  0.157436
    H   H8   0.499680  0.193030  0.617030  0.082226
    H   H9   0.500380  0.193030  0.187310  0.139644
    H   H10  0.499510  0.306980  0.714970  0.139685
    H   H11  0.500210  0.306980  0.285250  0.082973
    H   H12  0.500200  0.378420  0.284280  0.156204
    C   C33  0.869110  0.500020  0.500000  -0.128994
    C   C34  0.130910  0.499990  0.499990  0.108062
    C   C35  0.935010  0.500070  0.380060  0.604133
    C   C36  0.065010  0.499930  0.619930  -0.240023
    C   C37  0.065000  0.500060  0.380050  -0.384080
    C   C38  0.935020  0.499940  0.619940  -0.141677
    H   H13  0.109860  0.499880  0.703080  0.144285
    H   H14  0.109850  0.500100  0.296910  0.113178
    H   H15  0.890170  0.499900  0.703080  0.151120
    C   C39  0.869290  0.000360  0.403330  -0.119971
    C   C40  0.131080  0.000640  0.404090  0.091107
    C   C41  0.934880  0.000360  0.523460  0.598105
    C   C42  0.065490  0.000640  0.283960  -0.230581
    C   C43  0.064880  0.000500  0.523840  -0.374231
    C   C44  0.935490  0.000490  0.283580  -0.149959
    H   H16  0.110550  0.000730  0.200950  0.142147
    H   H17  0.109520  0.000510  0.607110  0.111653
    H   H18  0.890850  0.000490  0.200310  0.152135
    C   C45  0.500650  0.884630  0.148540  0.571307
    O   O17  0.555380  0.868770  0.042790  -0.496316
    O   O18  0.453000  0.917020  0.140550  -0.424371
    H   H19  0.575110  0.840750  0.064970  0.361675
    C   C46  0.499860  0.615370  0.753730  0.567552
    O   O19  0.554330  0.631290  0.859650  -0.495040
    O   O20  0.452180  0.582930  0.761590  -0.424483
    H   H20  0.574120  0.659330  0.837520  0.361047
    C   C47  0.500450  0.115370  0.148540  0.568348
    O   O21  0.446020  0.131230  0.042610  -0.491895
    O   O22  0.548130  0.082980  0.140700  -0.428797
    H   H21  0.426220  0.159250  0.064730  0.360863
    C   C48  0.499440  0.384630  0.753730  0.566676
    O   O23  0.444680  0.368720  0.859470  -0.491625
    O   O24  0.547090  0.417070  0.761750  -0.429017
    H   H22  0.424950  0.340680  0.837270  0.360755
    O   O25  0.874360  0.500140  0.267650  -0.893826
    Li  Li1  0.921120  0.500220  0.104030  0.900805
    O   O26  0.873960  0.000240  0.635700  -0.894382
    Li  Li2  0.920310  0.000200  0.799460  0.900948
