# Generated by REPEAT Assigner based on pymatgen
data_DB1-Cu2N8-ADC_B-DPAC_B_No1479
_audit_creation_date              2022-05-24
_audit_creation_method            REPEAT_Assigner
_cell_length_a                    20.781400
_cell_length_b                    39.288300
_cell_length_c                    7.052800
_cell_angle_alpha                 89.998900
_cell_angle_beta                  89.995200
_cell_angle_gamma                 58.059000
_cell_volume                      4886.514801
_symmetry_space_group_name_H-M    P1
_symmetry_Int_Tables_number       1
loop_
    _symmetry_equiv_pos_site_id
    _symmetry_equiv_pos_as_xyz
    1  x,y,z
loop_
    _atom_site_type_symbol
    _atom_site_label
    _atom_site_fract_x
    _atom_site_fract_y
    _atom_site_fract_z
    _atom_type_partial_charge
    Cu  Cu1  0.500000  0.500000  0.000000  0.299500
    Cu  Cu2  0.500000  0.500000  0.500000  0.297501
    N   N1   0.414790  0.542290  0.156220  0.096471
    N   N2   0.352200  0.574040  0.092930  -0.521989
    N   N3   0.499390  0.457710  0.343800  0.094102
    N   N4   0.500310  0.425960  0.407110  -0.527930
    N   N5   0.585210  0.457710  0.656180  0.098878
    N   N6   0.647800  0.425960  0.592870  -0.509967
    N   N7   0.500610  0.542290  0.843800  0.093141
    N   N8   0.499690  0.574040  0.907090  -0.526116
    N   N9   0.585210  0.457710  0.843780  0.089027
    N   N10  0.647800  0.425960  0.907070  -0.503144
    N   N11  0.500610  0.542290  0.656200  0.083000
    N   N12  0.499690  0.574040  0.592890  -0.518242
    N   N13  0.414790  0.542290  0.343820  0.098431
    N   N14  0.352200  0.574040  0.407130  -0.522783
    N   N15  0.499390  0.457710  0.156210  0.083232
    N   N16  0.500310  0.425960  0.092910  -0.519894
    C   C1   0.314600  0.592830  0.250030  0.805505
    C   C2   0.500290  0.407170  0.250010  0.821629
    C   C3   0.685410  0.407170  0.749970  0.785724
    C   C4   0.499720  0.592830  0.749990  0.855167
    Cu  Cu3  0.500090  0.999980  0.000120  0.319333
    Cu  Cu4  0.500000  0.000000  0.500120  0.322198
    N   N17  0.585260  0.957690  0.156390  0.082180
    N   N18  0.647860  0.925930  0.093150  -0.493647
    N   N19  0.500660  0.042280  0.343940  0.062307
    N   N20  0.499750  0.074030  0.407260  -0.500647
    N   N21  0.414770  0.042300  0.656250  0.074733
    N   N22  0.352200  0.074050  0.592900  -0.493740
    N   N23  0.499300  0.957730  0.843900  0.067108
    N   N24  0.500200  0.925980  0.907190  -0.512955
    N   N25  0.414740  0.042310  0.843850  0.083212
    N   N26  0.352140  0.074070  0.907100  -0.498830
    N   N27  0.499340  0.957720  0.656300  0.076427
    N   N28  0.500250  0.925970  0.592990  -0.517294
    N   N29  0.585230  0.957700  0.343990  0.074012
    N   N30  0.647810  0.925940  0.407350  -0.488783
    N   N31  0.500700  0.042270  0.156340  0.074251
    N   N32  0.499810  0.074020  0.093060  -0.507152
    C   C5   0.685430  0.907150  0.250280  0.806440
    C   C6   0.499810  0.092800  0.250160  0.827788
    C   C7   0.314570  0.092850  0.749970  0.792872
    C   C8   0.500190  0.907190  0.750080  0.816356
    C   C9   0.500130  0.871140  0.750060  -0.179678
    C   C10  0.500120  0.852410  0.578010  -0.083021
    C   C11  0.500060  0.816580  0.577480  -0.082101
    C   C12  0.500010  0.798430  0.750020  0.188570
    C   C13  0.500020  0.816580  0.922590  -0.054168
    C   C14  0.500070  0.852410  0.922100  -0.144497
    C   C15  0.499960  0.765230  0.750000  -0.116830
    C   C16  0.499910  0.734800  0.749980  -0.132671
    C   C17  0.499860  0.701600  0.749990  0.211699
    C   C18  0.499830  0.683450  0.577440  -0.106779
    C   C19  0.499780  0.647620  0.577940  -0.071275
    C   C20  0.499760  0.628880  0.749990  -0.234861
    C   C21  0.499790  0.647620  0.922030  -0.026953
    C   C22  0.499840  0.683450  0.922540  -0.112520
    H   H1   0.500160  0.864840  0.450470  0.098643
    H   H2   0.500060  0.804010  0.450150  0.331220
    H   H3   0.500080  0.864840  0.049640  0.133964
    H   H4   0.499760  0.635190  0.450400  0.115349
    H   H5   0.499770  0.635190  0.049580  0.085930
    H   H6   0.499860  0.696020  0.049860  0.342137
    C   C23  0.499870  0.128860  0.250140  -0.205725
    C   C24  0.499880  0.147590  0.078080  -0.040347
    C   C25  0.499940  0.183420  0.077550  -0.109317
    C   C26  0.499990  0.201570  0.250090  0.192018
    C   C27  0.499980  0.183410  0.422650  -0.070634
    C   C28  0.499930  0.147590  0.422170  -0.109064
    C   C29  0.500040  0.234770  0.250060  -0.091116
    C   C30  0.500090  0.265200  0.250030  -0.157591
    C   C31  0.500140  0.298400  0.250030  0.234972
    C   C32  0.500170  0.316550  0.077480  -0.103598
    C   C33  0.500220  0.352380  0.077980  -0.125748
    C   C34  0.500240  0.371120  0.250010  -0.176725
    C   C35  0.500210  0.352380  0.422060  -0.080065
    C   C36  0.500160  0.316550  0.422580  -0.096689
    H   H7   0.499850  0.135160  0.950550  0.083425
    H   H8   0.499950  0.195990  0.950220  0.320471
    H   H9   0.499920  0.135150  0.549720  0.121794
    H   H10  0.500240  0.364810  0.950430  0.127639
    H   H11  0.500230  0.364810  0.549600  0.096824
    H   H12  0.500150  0.303980  0.549900  0.326848
    C   C37  0.757500  0.871180  0.250240  -0.250080
    C   C38  0.795010  0.852450  0.078180  -0.003258
    C   C39  0.866720  0.816620  0.077630  -0.127422
    C   C40  0.903060  0.798450  0.250170  0.224553
    C   C41  0.866720  0.816600  0.422740  -0.134956
    C   C42  0.795000  0.852430  0.422270  -0.041645
    C   C43  0.969510  0.765240  0.250130  -0.165245
    C   C44  0.030410  0.734820  0.250100  -0.097308
    C   C45  0.096870  0.701610  0.250090  0.170217
    C   C46  0.133200  0.683450  0.077530  -0.060393
    C   C47  0.204920  0.647620  0.078020  -0.120728
    C   C48  0.242430  0.628880  0.250050  -0.192206
    C   C49  0.204920  0.647620  0.422100  -0.065298
    C   C50  0.133210  0.683450  0.422630  -0.063930
    H   H13  0.770130  0.864890  0.950650  0.076738
    H   H14  0.891880  0.804050  0.950300  0.385358
    H   H15  0.770120  0.864860  0.549820  0.105953
    H   H16  0.229800  0.635190  0.950470  0.126671
    H   H17  0.229810  0.635190  0.549640  0.092522
    H   H18  0.108050  0.696020  0.549960  0.318107
    C   C51  0.242560  0.128860  0.749760  -0.190039
    C   C52  0.205060  0.147600  0.921820  -0.045746
    C   C53  0.133340  0.183420  0.922370  -0.093777
    C   C54  0.096980  0.201570  0.749830  0.191753
    C   C55  0.133310  0.183410  0.577260  -0.085199
    C   C56  0.205030  0.147590  0.577730  -0.100960
    C   C57  0.030510  0.234770  0.749870  -0.073061
    C   C58  0.969610  0.265190  0.749900  -0.182158
    C   C59  0.903140  0.298400  0.749910  0.252377
    C   C60  0.866800  0.316550  0.922470  -0.140889
    C   C61  0.795080  0.352380  0.921980  -0.082513
    C   C62  0.757580  0.371120  0.749950  -0.195424
    C   C63  0.795080  0.352380  0.577900  -0.047520
    C   C64  0.866800  0.316550  0.577370  -0.116617
    H   H19  0.229960  0.135160  0.049350  0.082786
    H   H20  0.108190  0.195990  0.049700  0.298451
    H   H21  0.229910  0.135150  0.450180  0.116185
    H   H22  0.770190  0.364810  0.049530  0.112983
    H   H23  0.770190  0.364810  0.450360  0.084615
    H   H24  0.891960  0.303980  0.450040  0.359527
    S   S1   0.499960  0.795190  0.139350  0.754084
    O   O1   0.413220  0.819790  0.240220  -0.387607
    O   O2   0.525160  0.749370  0.121360  -0.332356
    H   H25  0.425460  0.820370  0.373790  0.197853
    O   O3   0.554090  0.797830  0.290090  -0.435306
    S   S2   0.499860  0.704850  0.360660  0.797047
    O   O4   0.413130  0.728840  0.259770  -0.378087
    O   O5   0.525170  0.736520  0.378640  -0.343293
    H   H26  0.425370  0.721400  0.126210  0.198898
    O   O6   0.553960  0.671880  0.209950  -0.457421
    S   S3   0.500050  0.204810  0.639410  0.723521
    O   O7   0.586780  0.180200  0.740250  -0.379773
    O   O8   0.474850  0.250630  0.621420  -0.339293
    H   H27  0.574540  0.179630  0.873820  0.192933
    O   O9   0.445910  0.202160  0.790180  -0.393416
    S   S4   0.500140  0.295140  0.860710  0.795380
    O   O10  0.586870  0.271160  0.759780  -0.390256
    O   O11  0.474830  0.263480  0.878700  -0.354105
    H   H28  0.574630  0.278600  0.626220  0.198438
    O   O12  0.446050  0.328120  0.710010  -0.433641
    S   S5   0.909550  0.795180  0.639490  0.846554
    O   O13  0.870780  0.771200  0.740360  -0.390465
    O   O14  0.998200  0.763510  0.621480  -0.350306
    H   H29  0.868160  0.778630  0.873930  0.194416
    O   O15  0.897710  0.828140  0.790240  -0.494957
    S   S6   0.090360  0.704860  0.860760  0.771909
    O   O16  0.052840  0.680260  0.759870  -0.391354
    O   O17  0.023920  0.750670  0.878760  -0.348321
    H   H30  0.066240  0.679680  0.626300  0.203431
    O   O18  0.149810  0.702200  0.710040  -0.446705
    S   S7   0.090440  0.204810  0.360510  0.738462
    O   O19  0.052930  0.180200  0.259670  -0.383399
    O   O20  0.023990  0.250630  0.378510  -0.351220
    H   H31  0.066320  0.179630  0.126090  0.195637
    O   O21  0.149870  0.202160  0.209740  -0.386549
    S   S8   0.909650  0.295140  0.139240  0.841016
    O   O22  0.870890  0.271160  0.240160  -0.400918
    O   O23  0.998300  0.263480  0.121230  -0.359342
    H   H32  0.868270  0.278590  0.373720  0.190896
    O   O24  0.897790  0.328120  0.289940  -0.451748
