# Generated by REPEAT Assigner based on pymatgen
data_DB1-Cu2O8N2-irmof20_A-irmof8_A_No22
_audit_creation_date              2022-05-24
_audit_creation_method            REPEAT_Assigner
_cell_length_a                    25.491400
_cell_length_b                    12.501100
_cell_length_c                    10.828700
_cell_angle_alpha                 89.999100
_cell_angle_beta                  89.998900
_cell_angle_gamma                 89.886400
_cell_volume                      3450.780899
_symmetry_space_group_name_H-M    P1
_symmetry_Int_Tables_number       1
loop_
    _symmetry_equiv_pos_site_id
    _symmetry_equiv_pos_as_xyz
    1  x,y,z
loop_
    _atom_site_type_symbol
    _atom_site_label
    _atom_site_fract_x
    _atom_site_fract_y
    _atom_site_fract_z
    _atom_type_partial_charge
    Cu  Cu1  0.500000  0.499990  0.382480  0.922006
    Cu  Cu2  0.500000  0.499990  0.617520  1.143196
    O   O1   0.568210  0.499990  0.390400  -0.480135
    O   O2   0.431650  0.500320  0.390410  -0.520086
    O   O3   0.499870  0.639380  0.390400  -0.591327
    O   O4   0.499990  0.360920  0.390410  -0.504445
    O   O5   0.500110  0.360610  0.609600  -0.634650
    O   O6   0.500030  0.639070  0.609590  -0.514761
    O   O7   0.431740  0.500150  0.609600  -0.571988
    O   O8   0.568350  0.499640  0.609590  -0.559962
    C   C1   0.598390  0.499790  0.500000  0.485851
    C   C2   0.401620  0.500190  0.500010  0.581030
    C   C3   0.499960  0.700620  0.500000  0.602412
    C   C4   0.500050  0.299370  0.500010  0.632568
    Cu  Cu3  0.009600  0.499330  0.617570  0.881477
    Cu  Cu4  0.009600  0.500090  0.382530  1.147778
    O   O9   0.941390  0.499430  0.609650  -0.472653
    O   O10  0.077950  0.499610  0.609640  -0.513478
    O   O11  0.009490  0.638750  0.610240  -0.587521
    O   O12  0.009840  0.360290  0.609050  -0.498930
    O   O13  0.009720  0.360680  0.389860  -0.643588
    O   O14  0.009340  0.639140  0.391040  -0.518195
    O   O15  0.077860  0.500150  0.390450  -0.571208
    O   O16  0.941250  0.499780  0.390450  -0.562538
    C   C5   0.911210  0.499620  0.500050  0.492244
    C   C6   0.107980  0.499800  0.500040  0.580690
    C   C7   0.009300  0.700330  0.500900  0.610067
    C   C8   0.009890  0.299090  0.499190  0.637943
    C   C9   0.529450  0.439920  0.872250  0.032619
    H   H1   0.554080  0.389670  0.846380  0.161794
    S   S1   0.457510  0.586690  0.866540  0.143266
    C   C10  0.470560  0.560070  0.127750  -0.021229
    H   H2   0.445920  0.610320  0.153620  0.168263
    S   S2   0.542500  0.413300  0.133460  0.161563
    N   N1   0.500000  0.499990  0.792180  -0.232686
    N   N2   0.500000  0.499990  0.207820  -0.169165
    C   C11  0.481030  0.538700  0.000000  -0.004794
    C   C12  0.518980  0.461290  0.000000  -0.062792
    C   C13  0.499920  0.889340  0.402050  -0.171440
    H   H3   0.499860  0.866930  0.320100  0.182212
    S   S3   0.500090  0.884390  0.641360  0.044761
    C   C14  0.500090  0.110650  0.597960  -0.146343
    H   H4   0.500150  0.133060  0.679900  0.173863
    S   S4   0.499920  0.115600  0.358640  0.040387
    C   C15  0.499980  0.819980  0.500000  -0.187392
    C   C16  0.500030  0.180010  0.500000  -0.208334
    C   C17  0.500050  0.999990  0.563120  0.076959
    C   C18  0.499960  -0.000000  0.436880  0.096061
    C   C19  0.817710  0.499530  0.590420  -0.127502
    C   C20  0.837320  0.499860  0.374280  -0.073122
    C   C21  0.784080  0.499950  0.340870  -0.078839
    C   C22  0.746540  0.499810  0.437540  0.140057
    C   C23  0.691880  0.499890  0.409620  -0.135268
    C   C24  0.672280  0.499550  0.625770  -0.073148
    C   C25  0.725520  0.499470  0.659180  -0.081113
    C   C26  0.763060  0.499600  0.562510  0.136465
    C   C27  0.853130  0.499650  0.500040  -0.033110
    C   C28  0.656470  0.499760  0.500010  -0.026490
    H   H5   0.829980  0.499350  0.687070  0.078784
    H   H6   0.867030  0.499950  0.303030  0.105315
    H   H7   0.679610  0.500070  0.312980  0.082444
    H   H8   0.642570  0.499460  0.697000  0.105645
    C   C29  0.309070  0.500000  0.597970  -0.132911
    H   H9   0.320060  0.499950  0.679910  0.158549
    S   S5   0.311490  0.500180  0.358650  0.058395
    C   C30  0.200530  0.500000  0.402080  -0.126555
    H   H10  0.189540  0.500050  0.320130  0.157205
    S   S6   0.198110  0.499820  0.641390  0.058469
    C   C31  0.343080  0.500120  0.500010  -0.195056
    C   C32  0.166520  0.499880  0.500030  -0.198757
    C   C33  0.254800  0.500050  0.436910  0.061563
    C   C34  0.254800  0.499950  0.563140  0.067266
    C   C35  0.980250  0.440870  0.127540  0.030397
    H   H11  0.955700  0.390560  0.153200  0.164241
    S   S7   0.051950  0.587540  0.133880  0.142821
    C   C36  0.038940  0.561770  0.872560  -0.019095
    H   H12  0.063490  0.612080  0.846900  0.168326
    S   S8   0.967240  0.415100  0.866220  0.164233
    N   N3   0.009600  0.500650  0.207860  -0.227700
    N   N4   0.009600  0.501990  0.792230  -0.159962
    C   C37  0.028500  0.540010  0.000210  -0.008134
    C   C38  0.990690  0.462630  0.999880  -0.066181
    C   C39  0.009030  0.888740  0.599650  -0.171363
    H   H13  0.009130  0.866070  0.681500  0.182602
    S   S9   0.008870  0.884560  0.360310  0.046021
    C   C40  0.008480  0.110680  0.404680  -0.152846
    H   H14  0.008380  0.133350  0.322830  0.175603
    S   S10  0.008650  0.114860  0.644020  0.041719
    C   C41  0.009090  0.819700  0.501410  -0.190075
    C   C42  0.008430  0.179720  0.502930  -0.204490
    C   C43  0.008710  0.999910  0.439050  0.077682
    C   C44  0.008800  0.999510  0.565280  0.095251
    Cl  Cl1  0.745830  0.499200  0.814520  -0.032516
    Cl  Cl2  0.763770  0.500200  0.185530  -0.034187
