# Generated by REPEAT Assigner based on pymatgen
data_DB1-Cu2N8-irmof20_B-irmof7_B_No364
_audit_creation_date              2022-05-24
_audit_creation_method            REPEAT_Assigner
_cell_length_a                    13.291300
_cell_length_b                    15.188000
_cell_length_c                    7.052800
_cell_angle_alpha                 76.574300
_cell_angle_beta                  105.386000
_cell_angle_gamma                 69.388400
_cell_volume                      1198.306704
_symmetry_space_group_name_H-M    P1
_symmetry_Int_Tables_number       1
loop_
    _symmetry_equiv_pos_site_id
    _symmetry_equiv_pos_as_xyz
    1  x,y,z
loop_
    _atom_site_type_symbol
    _atom_site_label
    _atom_site_fract_x
    _atom_site_fract_y
    _atom_site_fract_z
    _atom_type_partial_charge
    Cu  Cu1  0.500000  0.500000  0.000000  0.287997
    Cu  Cu2  0.500000  0.500000  0.500000  0.345890
    N   N1   0.630630  0.499120  0.221950  0.139439
    N   N2   0.726590  0.500290  0.206050  -0.583415
    N   N3   0.501000  0.386690  0.400950  0.036174
    N   N4   0.499630  0.303460  0.505190  -0.483288
    N   N5   0.369380  0.500880  0.590450  0.077356
    N   N6   0.273420  0.499710  0.479750  -0.547726
    N   N7   0.499000  0.613300  0.786650  0.071891
    N   N8   0.500370  0.696540  0.809020  -0.536150
    N   N9   0.369380  0.500880  0.778050  0.127077
    N   N10  0.273410  0.499710  0.793950  -0.536811
    N   N11  0.499000  0.613300  0.599050  0.015818
    N   N12  0.500370  0.696540  0.494820  -0.520906
    N   N13  0.630630  0.499120  0.409550  0.079083
    N   N14  0.726590  0.500290  0.520250  -0.574437
    N   N15  0.501000  0.386690  0.213350  0.137029
    N   N16  0.499630  0.303460  0.190990  -0.577185
    C   C1   0.784230  0.500230  0.392000  0.908679
    C   C2   0.499690  0.253460  0.373120  0.870837
    C   C3   0.215770  0.499770  0.608000  0.901695
    C   C4   0.500310  0.746540  0.626880  0.991848
    C   C5   0.500120  0.906310  0.697290  0.494799
    S   S1   0.500120  0.902120  0.331950  0.041170
    C   C6   0.499890  0.093680  0.302710  -0.113014
    H   H1   0.499860  0.112660  0.167390  0.148884
    S   S2   0.499880  0.097870  0.668050  0.090047
    C   C7   0.500190  0.847590  0.576300  -0.574047
    C   C8   0.499810  0.152400  0.423710  -0.309976
    C   C9   0.500000  0.000000  0.403090  0.067240
    C   C10  0.500000  0.000000  0.596910  -0.059571
    C   C11  0.101840  0.499890  0.550970  -0.441225
    C   C12  0.015270  0.565240  0.597760  0.284031
    C   C13  0.081520  0.434650  0.450690  -0.004580
    C   C14  0.039380  0.628960  0.697850  -0.332592
    C   C15  0.955660  0.695060  0.747100  -0.038485
    H   H2   0.112750  0.627160  0.732190  0.127935
    C   C16  0.898170  0.500110  0.449030  -0.528637
    C   C17  0.984730  0.434760  0.402240  0.074175
    C   C18  0.918480  0.565340  0.549310  0.508538
    C   C19  0.829660  0.629180  0.592880  -0.604769
    C   C20  0.846370  0.695180  0.692390  0.069283
    H   H3   0.758040  0.627530  0.554650  0.258477
    H   H4   0.969180  0.392210  0.335690  0.071586
    H   H5   0.140280  0.392030  0.421330  0.084615
    H   H6   0.557160  0.887800  0.044270  0.420422
    H   H7   0.443180  0.840620  0.950880  0.336822
    N   N17  0.500150  0.875520  0.916870  -0.842603
    C   C21  0.982160  0.764180  0.855840  0.597741
    O   O1   0.058150  0.797590  0.822990  -0.483963
    O   O2   0.930970  0.791000  0.969460  -0.465254
    H   H8   0.100270  0.758140  0.747250  0.356607
    C   C22  0.749680  0.764420  0.739480  0.358248
    O   O3   0.671300  0.735720  0.777640  -0.285857
    O   O4   0.746100  0.845570  0.747460  -0.297576
    H   H9   0.680620  0.673760  0.739170  0.360636
