# Generated by REPEAT Assigner based on pymatgen
data_DB1-Cu2O8N2-AZO_A-DPAC_A_No748
_audit_creation_date              2022-05-24
_audit_creation_method            REPEAT_Assigner
_cell_length_a                    15.606300
_cell_length_b                    17.276500
_cell_length_c                    17.372200
_cell_angle_alpha                 89.920000
_cell_angle_beta                  87.457500
_cell_angle_gamma                 95.773200
_cell_volume                      4655.505610
_symmetry_space_group_name_H-M    P1
_symmetry_Int_Tables_number       1
loop_
    _symmetry_equiv_pos_site_id
    _symmetry_equiv_pos_as_xyz
    1  x,y,z
loop_
    _atom_site_type_symbol
    _atom_site_label
    _atom_site_fract_x
    _atom_site_fract_y
    _atom_site_fract_z
    _atom_type_partial_charge
    Cu  Cu1  0.418090  0.496710  0.503260  1.115901
    Cu  Cu2  0.581910  0.503280  0.496740  0.823634
    O   O1   0.423600  0.496980  0.603130  -0.651603
    O   O2   0.423640  0.497110  0.402750  -0.627787
    O   O3   0.429960  0.598210  0.502600  -0.449777
    O   O4   0.417280  0.395890  0.503280  -0.367836
    O   O5   0.570040  0.401780  0.497380  -0.396957
    O   O6   0.582720  0.604100  0.496750  -0.285229
    O   O7   0.576400  0.503120  0.396790  -0.564210
    O   O8   0.576360  0.502850  0.597260  -0.639768
    C   C1   0.499980  0.499930  0.644370  0.721353
    C   C2   0.500020  0.500060  0.355630  0.622053
    C   C3   0.509140  0.645760  0.499580  0.517696
    C   C4   0.490860  0.354230  0.500430  0.483100
    N   N1   0.296350  0.491830  0.508110  -0.451356
    C   C5   0.253060  0.539790  0.460490  0.009881
    C   C6   0.162830  0.536050  0.464210  -0.160539
    C   C7   0.114060  0.484340  0.515550  -0.087546
    C   C8   0.156700  0.436570  0.562980  0.439004
    C   C9   0.246880  0.440130  0.559450  0.452342
    N   N2   0.021540  0.479160  0.520690  -0.016931
    N   N3   0.978460  0.520830  0.479320  -0.258547
    C   C10  0.843300  0.563420  0.437030  -0.679640
    C   C11  0.885940  0.515660  0.484450  0.503201
    C   C12  0.837170  0.463950  0.535800  -0.537972
    C   C13  0.746940  0.460200  0.539520  0.634193
    N   N4   0.703650  0.508160  0.491900  -0.512033
    C   C14  0.753120  0.559860  0.440560  0.777076
    H   H1   0.289460  0.580050  0.420520  0.106586
    H   H2   0.130790  0.573290  0.427230  0.026591
    H   H3   0.880310  0.603430  0.397300  0.065431
    H   H4   0.869210  0.426700  0.572780  -0.069071
    C   C15  0.485420  0.267480  0.500620  -0.151280
    C   C16  0.560760  0.228690  0.497730  -0.270173
    C   C17  0.555440  0.147210  0.497910  -0.099220
    C   C18  0.474790  0.102870  0.500990  -0.036378
    C   C19  0.399760  0.141080  0.503880  0.417241
    C   C20  0.404780  0.222510  0.503700  0.265334
    N   N5   0.467250  0.019320  0.501260  -0.010499
    N   N6   0.532750  0.980670  0.498750  -0.284808
    C   C21  0.600240  0.858910  0.496130  -0.652969
    C   C22  0.525210  0.897120  0.499020  0.517139
    C   C23  0.444560  0.852780  0.502100  -0.518276
    C   C24  0.439240  0.771300  0.502280  0.502396
    C   C25  0.514590  0.732510  0.499390  -0.394403
    C   C26  0.595220  0.777480  0.496310  0.661014
    H   H5   0.623560  0.261780  0.495330  0.125259
    H   H6   0.613940  0.118500  0.495670  0.027029
    H   H7   0.662650  0.892560  0.493750  0.089303
    H   H8   0.386060  0.881490  0.504340  -0.055475
    C   C27  0.500010  0.500050  0.274060  -0.377320
    C   C28  0.421920  0.497030  0.234790  0.407751
    C   C29  0.421680  0.497010  0.153740  -0.363620
    C   C30  0.500000  0.500030  0.109540  0.246806
    C   C31  0.578330  0.503070  0.147480  -0.360244
    C   C32  0.578100  0.503070  0.228550  0.383159
    C   C33  0.499990  0.500020  0.034420  -0.119953
    C   C34  0.499980  0.500010  0.965590  -0.102657
    C   C35  0.499980  0.499990  0.890470  0.279952
    C   C36  0.421660  0.496980  0.852520  -0.409910
    C   C37  0.421890  0.496970  0.771450  0.449040
    C   C38  0.499980  0.499960  0.725940  -0.492456
    C   C39  0.578070  0.502970  0.765220  0.499644
    C   C40  0.578300  0.502990  0.846270  -0.433448
    H   H9   0.363880  0.494770  0.127610  0.192316
    H   H10  0.636110  0.505300  0.116730  0.180360
    H   H11  0.363870  0.494770  0.883270  0.189325
    H   H12  0.636090  0.505220  0.872400  0.192467
    O   O9   0.284700  0.395160  0.604100  -0.679399
    Li  Li1  0.246820  0.326820  0.671960  0.762560
    O   O10  0.112300  0.388580  0.610640  -0.995204
    Li  Li2  0.004080  0.368180  0.630890  0.721845
    O   O11  0.715300  0.604830  0.395910  -0.816314
    Li  Li3  0.753180  0.673170  0.328050  0.824919
    O   O12  0.703310  0.411950  0.587430  -0.705551
    Li  Li4  0.732850  0.346320  0.652600  0.766769
    O   O13  0.334160  0.256390  0.506410  -0.674366
    Li  Li5  0.227400  0.221780  0.510500  0.732525
    O   O14  0.324900  0.100710  0.506740  -0.957987
    Li  Li6  0.293630  0.002900  0.507910  0.684770
    O   O15  0.665840  0.743600  0.493600  -0.851317
    Li  Li7  0.772600  0.778210  0.489510  0.788444
    O   O16  0.363970  0.731630  0.505160  -0.701495
    Li  Li8  0.261060  0.757910  0.509110  0.706605
    O   O17  0.336530  0.493730  0.279700  -0.595522
    H   H13  0.347770  0.494170  0.342350  0.433353
    O   O18  0.663500  0.506380  0.266630  -0.618781
    H   H14  0.652270  0.505950  0.330170  0.482231
    O   O19  0.336500  0.493680  0.733370  -0.616845
    H   H15  0.347730  0.494100  0.669820  0.462536
    O   O20  0.663460  0.506240  0.720320  -0.673075
    H   H16  0.652230  0.505790  0.657670  0.485611
