data_DB1-Cu2O8-ADC_A-BDC_A_No1027_repeat
_audit_creation_date              2024-02-23
_audit_creation_method            'Materials Studio'
_symmetry_space_group_name_H-M    'P1'
_symmetry_Int_Tables_number       1
_symmetry_cell_setting            triclinic
loop_
_symmetry_equiv_pos_as_xyz
  x,y,z
_cell_length_a                    10.7003
_cell_length_b                    34.9964
_cell_length_c                    10.0000
_cell_angle_alpha                 90.0000
_cell_angle_beta                  90.0000
_cell_angle_gamma                 90.0936
loop_
_atom_site_label
_atom_site_type_symbol
_atom_site_fract_x
_atom_site_fract_y
_atom_site_fract_z
_atom_site_U_iso_or_equiv
_atom_site_adp_type
_atom_site_occupancy
Cu1    Cu    0.50000   0.50000   0.62726   0.00000  Uiso   1.00
Cu2    Cu    0.50001   0.50000   0.37274   0.00000  Uiso   1.00
O1     O     0.66250   0.49997   0.61869   0.00000  Uiso   1.00
O2     O     0.33718   0.49992   0.61867   0.00000  Uiso   1.00
O3     O     0.49965   0.45021   0.61868   0.00000  Uiso   1.00
O4     O     0.50002   0.54968   0.61868   0.00000  Uiso   1.00
O5     O     0.50032   0.54979   0.38132   0.00000  Uiso   1.00
O6     O     0.50003   0.45033   0.38132   0.00000  Uiso   1.00
O7     O     0.33738   0.49998   0.38131   0.00000  Uiso   1.00
O8     O     0.66284   0.50010   0.38133   0.00000  Uiso   1.00
C1     C     0.73439   0.50003   0.50001   0.00000  Uiso   1.00
C2     C     0.26562   0.49997   0.49999   0.00000  Uiso   1.00
C3     C     0.49984   0.42834   0.49999   0.00000  Uiso   1.00
C4     C     0.50017   0.57167   0.50000   0.00000  Uiso   1.00
Cu3    Cu    0.50049  -0.00000   0.28188   0.00000  Uiso   1.00
Cu4    Cu    0.49987   0.00001   0.53639   0.00000  Uiso   1.00
O9     O     0.66297   0.00019   0.29091   0.00000  Uiso   1.00
O10    O     0.33764   0.99993   0.29000   0.00000  Uiso   1.00
O11    O     0.50013   0.04979   0.29044   0.00000  Uiso   1.00
O12    O     0.50048   0.95032   0.29047   0.00000  Uiso   1.00
O13    O     0.50018   0.95021   0.52783   0.00000  Uiso   1.00
O14    O     0.49992   0.04968   0.52780   0.00000  Uiso   1.00
O15    O     0.33725   0.99987   0.52735   0.00000  Uiso   1.00
O16    O     0.66271   0.00007   0.52827   0.00000  Uiso   1.00
C5     C     0.73456   0.00020   0.40980   0.00000  Uiso   1.00
C6     C     0.26579   0.99980   0.40848   0.00000  Uiso   1.00
C7     C     0.50003   0.07167   0.40912   0.00000  Uiso   1.00
C8     C     0.50033   0.92834   0.40915   0.00000  Uiso   1.00
C9     C     0.50032   0.88566   0.40916   0.00000  Uiso   1.00
C10    C     0.50017   0.86506   0.53008   0.00000  Uiso   1.00
C11    C     0.50016   0.82503   0.53024   0.00000  Uiso   1.00
C12    C     0.50031   0.80443   0.40893   0.00000  Uiso   1.00
C13    C     0.50047   0.82510   0.28832   0.00000  Uiso   1.00
C14    C     0.50047   0.86509   0.28824   0.00000  Uiso   1.00
C15    C     0.50032   0.76182   0.40144   0.00000  Uiso   1.00
C16    C     0.50018   0.73818   0.50777   0.00000  Uiso   1.00
C17    C     0.50003   0.67490   0.62087   0.00000  Uiso   1.00
C18    C     0.50019   0.69557   0.50026   0.00000  Uiso   1.00
C19    C     0.50034   0.67498   0.37894   0.00000  Uiso   1.00
C20    C     0.50033   0.63495   0.37910   0.00000  Uiso   1.00
C21    C     0.50018   0.61434   0.50001   0.00000  Uiso   1.00
C22    C     0.50003   0.63491   0.62094   0.00000  Uiso   1.00
H1     H     0.50044   0.74990   0.30204   0.00000  Uiso   1.00
H2     H     0.50006   0.75010   0.60716   0.00000  Uiso   1.00
C23    C     0.50003   0.11434   0.40913   0.00000  Uiso   1.00
C24    C     0.49983   0.13495   0.53004   0.00000  Uiso   1.00
C25    C     0.49982   0.17498   0.53022   0.00000  Uiso   1.00
C26    C     0.50002   0.19557   0.40890   0.00000  Uiso   1.00
C27    C     0.50022   0.17491   0.28829   0.00000  Uiso   1.00
C28    C     0.50022   0.13492   0.28821   0.00000  Uiso   1.00
C29    C     0.50003   0.23819   0.40142   0.00000  Uiso   1.00
C30    C     0.49985   0.26182   0.50774   0.00000  Uiso   1.00
C31    C     0.49966   0.32510   0.62085   0.00000  Uiso   1.00
C32    C     0.49986   0.30443   0.50024   0.00000  Uiso   1.00
C33    C     0.50005   0.32503   0.37892   0.00000  Uiso   1.00
C34    C     0.50005   0.36505   0.37909   0.00000  Uiso   1.00
C35    C     0.49985   0.38566   0.50000   0.00000  Uiso   1.00
C36    C     0.49966   0.36509   0.62092   0.00000  Uiso   1.00
H3     H     0.50018   0.25010   0.30202   0.00000  Uiso   1.00
H4     H     0.49969   0.24990   0.60714   0.00000  Uiso   1.00
C37    C     0.86911   0.50002   0.50000   0.00000  Uiso   1.00
C38    C     0.13091   0.49999   0.49999   0.00000  Uiso   1.00
C39    C     0.93501   0.50007   0.38006   0.00000  Uiso   1.00
C40    C     0.06501   0.49993   0.61993   0.00000  Uiso   1.00
C41    C     0.06500   0.50006   0.38005   0.00000  Uiso   1.00
C42    C     0.93501   0.49995   0.61994   0.00000  Uiso   1.00
H5     H     0.10986   0.49988   0.70308   0.00000  Uiso   1.00
H6     H     0.10985   0.50010   0.29691   0.00000  Uiso   1.00
H7     H     0.89016   0.49991   0.70308   0.00000  Uiso   1.00
C43    C     0.86928   0.00035   0.41019   0.00000  Uiso   1.00
C44    C     0.13107   0.00063   0.41095   0.00000  Uiso   1.00
C45    C     0.93488   0.00036   0.53032   0.00000  Uiso   1.00
C46    C     0.06548   0.00062   0.29082   0.00000  Uiso   1.00
C47    C     0.06487   0.00050   0.53070   0.00000  Uiso   1.00
C48    C     0.93548   0.00048   0.29044   0.00000  Uiso   1.00
H8     H     0.11054   0.00071   0.20781   0.00000  Uiso   1.00
H9     H     0.10951   0.00051   0.61398   0.00000  Uiso   1.00
H10    H     0.89084   0.00048   0.20717   0.00000  Uiso   1.00
H11    H     0.56198   0.91138   0.14215   0.00000  Uiso   1.00
H12    H     0.43943   0.87625   0.07357   0.00000  Uiso   1.00
N1     N     0.50064   0.88610   0.15634   0.00000  Uiso   1.00
H13    H     0.43933   0.77912   0.14087   0.00000  Uiso   1.00
H14    H     0.56205   0.81439   0.07354   0.00000  Uiso   1.00
N2     N     0.50063   0.80437   0.15588   0.00000  Uiso   1.00
H15    H     0.43867   0.91133   0.67599   0.00000  Uiso   1.00
H16    H     0.56122   0.87634   0.74470   0.00000  Uiso   1.00
N3     N     0.50001   0.88610   0.66189   0.00000  Uiso   1.00
H17    H     0.56129   0.78007   0.68131   0.00000  Uiso   1.00
H18    H     0.43858   0.81566   0.74582   0.00000  Uiso   1.00
N4     N     0.49999   0.80517   0.66429   0.00000  Uiso   1.00
H19    H     0.56185   0.71999   0.22805   0.00000  Uiso   1.00
H20    H     0.43929   0.68429   0.16319   0.00000  Uiso   1.00
N5     N     0.50051   0.69484   0.24489   0.00000  Uiso   1.00
H21    H     0.43919   0.58862   0.23300   0.00000  Uiso   1.00
H22    H     0.56192   0.62373   0.16465   0.00000  Uiso   1.00
N6     N     0.50050   0.61391   0.24727   0.00000  Uiso   1.00
H23    H     0.43854   0.72082   0.76816   0.00000  Uiso   1.00
H24    H     0.56108   0.68566   0.83582   0.00000  Uiso   1.00
N7     N     0.49987   0.69563   0.75331   0.00000  Uiso   1.00
H25    H     0.56116   0.58868   0.76719   0.00000  Uiso   1.00
H26    H     0.43844   0.62369   0.83543   0.00000  Uiso   1.00
N8     N     0.49986   0.61390   0.75283   0.00000  Uiso   1.00
H27    H     0.43915   0.08862   0.14191   0.00000  Uiso   1.00
H28    H     0.56189   0.12376   0.07374   0.00000  Uiso   1.00
N9     N     0.50044   0.11391   0.15631   0.00000  Uiso   1.00
H29    H     0.56177   0.22089   0.14105   0.00000  Uiso   1.00
H30    H     0.43925   0.18562   0.07331   0.00000  Uiso   1.00
N10    N     0.50043   0.19563   0.15586   0.00000  Uiso   1.00
H31    H     0.56092   0.08867   0.67615   0.00000  Uiso   1.00
H32    H     0.43817   0.12366   0.74447   0.00000  Uiso   1.00
N11    N     0.49962   0.11390   0.66186   0.00000  Uiso   1.00
H33    H     0.43826   0.21993   0.68108   0.00000  Uiso   1.00
H34    H     0.56079   0.18435   0.74599   0.00000  Uiso   1.00
N12    N     0.49961   0.19484   0.66426   0.00000  Uiso   1.00
H35    H     0.43898   0.28001   0.22782   0.00000  Uiso   1.00
H36    H     0.56172   0.31572   0.16337   0.00000  Uiso   1.00
N13    N     0.50027   0.30517   0.24487   0.00000  Uiso   1.00
H37    H     0.56159   0.41139   0.23319   0.00000  Uiso   1.00
H38    H     0.43908   0.37628   0.16443   0.00000  Uiso   1.00
N14    N     0.50026   0.38610   0.24726   0.00000  Uiso   1.00
H39    H     0.56074   0.27918   0.76834   0.00000  Uiso   1.00
H40    H     0.43800   0.31434   0.83560   0.00000  Uiso   1.00
N15    N     0.49945   0.30438   0.75329   0.00000  Uiso   1.00
H41    H     0.43810   0.41132   0.76698   0.00000  Uiso   1.00
H42    H     0.56063   0.37631   0.83562   0.00000  Uiso   1.00
N16    N     0.49944   0.38610   0.75282   0.00000  Uiso   1.00
O17    O     0.86446   0.50015   0.24929   0.00000  Uiso   1.00
H43    H     0.76247   0.50015   0.26957   0.00000  Uiso   1.00
O18    O     0.86400   0.00022   0.66089   0.00000  Uiso   1.00
H44    H     0.76207   0.00012   0.64031   0.00000  Uiso   1.00
