# Generated by REPEAT Assigner based on pymatgen
data_DB1-Zn2O8-AZO_A-DPAC_A_No976
_audit_creation_date              2022-05-24
_audit_creation_method            REPEAT_Assigner
_cell_length_a                    17.572400
_cell_length_b                    39.014300
_cell_length_c                    10.000000
_cell_angle_alpha                 90.000000
_cell_angle_beta                  90.000000
_cell_angle_gamma                 116.555000
_cell_volume                      6132.505948
_symmetry_space_group_name_H-M    P1
_symmetry_Int_Tables_number       1
loop_
    _symmetry_equiv_pos_site_id
    _symmetry_equiv_pos_as_xyz
    1  x,y,z
loop_
    _atom_site_type_symbol
    _atom_site_label
    _atom_site_fract_x
    _atom_site_fract_y
    _atom_site_fract_z
    _atom_type_partial_charge
    O   O1    0.390560  0.500370  0.635770  -0.272561
    O   O2    0.390330  0.500000  0.363960  -0.295244
    C   C1    0.351730  0.500140  0.499880  -0.219645
    Zn  Zn1   0.500050  0.500110  0.665770  1.195967
    O   O3    0.555120  0.555160  0.363800  -0.632943
    O   O4    0.555310  0.555370  0.635620  -0.495007
    C   C2    0.574600  0.574740  0.499740  0.376354
    O   O5    0.609540  0.499700  0.364230  -0.293491
    O   O6    0.609630  0.499930  0.636040  -0.274306
    C   C3    0.648270  0.499830  0.500130  -0.219950
    Zn  Zn2   0.499980  0.499890  0.334230  1.208634
    O   O7    0.444760  0.444840  0.636200  -0.495448
    O   O8    0.444860  0.444640  0.364380  -0.631297
    C   C4    0.425170  0.425260  0.500260  0.375371
    O   O9    0.887850  0.999820  0.266530  -0.273179
    O   O10   0.888320  0.000190  0.538330  -0.297915
    C   C5    0.849520  0.000110  0.402400  -0.204443
    Zn  Zn3   0.997690  0.999910  0.236570  1.207084
    O   O11   0.943100  0.944860  0.538530  -0.628701
    O   O12   0.942910  0.944660  0.266720  -0.495263
    C   C6    0.923620  0.925280  0.402590  0.350072
    O   O13   0.107780  0.000150  0.538140  -0.293293
    O   O14   0.107450  0.999920  0.266340  -0.273955
    C   C7    0.146210  0.999960  0.402260  -0.211133
    Zn  Zn4   0.998010  0.000130  0.568100  1.209228
    O   O15   0.052440  0.055180  0.266140  -0.501138
    O   O16   0.052910  0.055380  0.537950  -0.631296
    C   C8    0.071820  0.074760  0.402070  0.371260
    C   C9    0.881030  0.882510  0.402520  0.151160
    C   C10   0.860440  0.861830  0.523640  -0.213503
    C   C11   0.820450  0.821660  0.523250  -0.092694
    C   C12   0.800240  0.801360  0.401930  0.438322
    C   C13   0.820540  0.821750  0.281370  -0.363493
    C   C14   0.860520  0.861900  0.281290  0.140286
    N   N1    0.759280  0.760220  0.398290  -0.238385
    N   N2    0.738940  0.739800  0.504050  -0.232088
    C   C15   0.677680  0.678270  0.620970  -0.371714
    C   C16   0.697980  0.698660  0.500400  0.440088
    C   C17   0.677770  0.678350  0.379080  -0.086436
    C   C18   0.637780  0.638190  0.378700  -0.213547
    C   C19   0.617190  0.617510  0.499810  0.129203
    C   C20   0.637700  0.638120  0.621040  0.166776
    H   H1    0.875470  0.876930  0.618230  0.209136
    H   H2    0.805150  0.806310  0.617150  0.097541
    H   H3    0.805230  0.806360  0.187430  0.185109
    H   H4    0.692990  0.693660  0.714910  0.182812
    H   H5    0.693070  0.693710  0.285190  0.092591
    H   H6    0.622750  0.623090  0.284110  0.209616
    C   C21   0.114950  0.117530  0.402130  0.139430
    C   C22   0.135640  0.138180  0.523300  -0.208395
    C   C23   0.176140  0.178340  0.523040  -0.094460
    C   C24   0.196780  0.198670  0.401780  0.441583
    C   C25   0.176380  0.178320  0.281150  -0.365365
    C   C26   0.135900  0.138170  0.280960  0.144725
    N   N3    0.238270  0.239820  0.398260  -0.240020
    N   N4    0.258710  0.260200  0.504080  -0.231561
    C   C27   0.320600  0.321710  0.621180  -0.369594
    C   C28   0.300210  0.301350  0.500560  0.440443
    C   C29   0.320850  0.321680  0.379300  -0.086158
    C   C30   0.361350  0.361840  0.379030  -0.216885
    C   C31   0.382040  0.382500  0.500210  0.134143
    C   C32   0.361090  0.361850  0.621380  0.162509
    H   H7    0.120280  0.123050  0.617850  0.207338
    H   H8    0.191500  0.193680  0.616980  0.097228
    H   H9    0.192030  0.193720  0.187260  0.184924
    H   H10   0.304960  0.306300  0.715070  0.182540
    H   H11   0.305490  0.306340  0.285350  0.093439
    H   H12   0.376710  0.376970  0.284480  0.210434
    C   C33   0.271050  0.500100  0.499910  0.721549
    C   C34   0.229250  0.500190  0.621270  -0.203689
    C   C35   0.149080  0.500160  0.621660  -0.269529
    C   C36   0.108320  0.500020  0.499980  0.687710
    C   C37   0.148820  0.499930  0.378270  -0.294950
    C   C38   0.228990  0.499970  0.378590  -0.155970
    C   C39   0.034030  0.499990  0.500020  -0.240727
    C   C40   0.965950  0.499960  0.500050  -0.239509
    C   C41   0.891660  0.499930  0.500060  0.685511
    C   C42   0.851140  0.500010  0.621770  -0.269971
    C   C43   0.770980  0.499980  0.621430  -0.204044
    C   C44   0.728940  0.499860  0.500110  0.724341
    C   C45   0.770750  0.499780  0.378760  -0.159264
    C   C46   0.850920  0.499810  0.378380  -0.291334
    C   C47   0.767500  0.998720  0.402700  0.698019
    C   C48   0.725590  0.998700  0.281330  -0.189771
    C   C49   0.645620  0.998860  0.280910  -0.278942
    C   C50   0.605180  0.999050  0.402580  0.697254
    C   C51   0.645780  0.999080  0.524300  -0.300782
    C   C52   0.725760  0.998920  0.524010  -0.145800
    C   C53   0.531060  0.999200  0.402510  -0.244956
    C   C54   0.463150  0.999340  0.402460  -0.235864
    C   C55   0.389030  0.999480  0.402410  0.681486
    C   C56   0.348430  0.999460  0.280690  -0.270058
    C   C57   0.268450  0.999620  0.281000  -0.196692
    C   C58   0.226700  0.999800  0.402310  0.709351
    C   C59   0.268600  0.999820  0.523680  -0.151503
    C   C60   0.348580  0.999670  0.524090  -0.292540
    O   O17   0.964900  0.916760  0.130690  -0.243234
    O   O18   0.818820  0.869980  0.039210  -0.341602
    N   N5    0.881580  0.883050  0.149350  0.283353
    O   O19   0.632750  0.583190  0.771660  -0.232435
    O   O20   0.579960  0.630120  0.863110  -0.326261
    N   N6    0.616640  0.616980  0.752980  0.246062
    O   O21   0.031190  0.083510  0.130020  -0.244385
    O   O22   0.177670  0.129980  0.039030  -0.342425
    N   N7    0.114750  0.117050  0.148960  0.283328
    O   O23   0.366680  0.416910  0.771970  -0.232887
    O   O24   0.418420  0.369640  0.863640  -0.326464
    N   N8    0.382230  0.382970  0.753380  0.246417
    Br  Br1   0.285900  0.500390  0.803760  0.019033
    Br  Br2   0.285250  0.499820  0.196050  -0.013058
    Br  Br3   0.091610  0.499730  0.196310  0.045486
    Br  Br4   0.092260  0.500300  0.803670  0.037392
    Br  Br5   0.908320  0.500190  0.803740  0.038572
    Br  Br6   0.907760  0.499680  0.196380  0.044015
    Br  Br7   0.714140  0.499600  0.196250  -0.012866
    Br  Br8   0.714690  0.500110  0.803970  0.018630
    Br  Br9   0.781780  0.998410  0.098860  0.017053
    Br  Br10  0.782200  0.998980  0.706570  -0.013672
    Br  Br11  0.589040  0.999370  0.706240  0.045081
    Br  Br12  0.588620  0.998800  0.098880  0.038946
    Br  Br13  0.405190  0.999200  0.098740  0.038075
    Br  Br14  0.405570  0.999710  0.706110  0.044094
    Br  Br15  0.212400  0.000090  0.706160  -0.014266
    Br  Br16  0.212020  0.999580  0.098440  0.017852
