# Generated by REPEAT Assigner based on pymatgen
data_DB1-Zn2O8N2-irmof20_A-irmof6_A_No303
_audit_creation_date              2022-05-24
_audit_creation_method            REPEAT_Assigner
_cell_length_a                    23.706800
_cell_length_b                    12.701400
_cell_length_c                    11.716400
_cell_angle_alpha                 90.038300
_cell_angle_beta                  89.878800
_cell_angle_gamma                 89.818300
_cell_volume                      3527.893489
_symmetry_space_group_name_H-M    P1
_symmetry_Int_Tables_number       1
loop_
    _symmetry_equiv_pos_site_id
    _symmetry_equiv_pos_as_xyz
    1  x,y,z
loop_
    _atom_site_type_symbol
    _atom_site_label
    _atom_site_fract_x
    _atom_site_fract_y
    _atom_site_fract_z
    _atom_type_partial_charge
    O   O1   0.500380  0.348160  0.615900  -0.520834
    O   O2   0.500100  0.348180  0.383910  -0.648961
    C   C1   0.500160  0.294670  0.499920  0.479685
    Zn  Zn1  0.500000  0.500020  0.641480  0.956823
    O   O3   0.581330  0.499880  0.383790  -0.453585
    O   O4   0.581370  0.500020  0.615790  -0.518297
    C   C2   0.610020  0.499840  0.499820  0.449810
    O   O5   0.499730  0.651870  0.384100  -0.537612
    O   O6   0.499800  0.651850  0.616090  -0.411027
    C   C3   0.499800  0.705360  0.500080  0.375578
    Zn  Zn2  0.500000  0.500010  0.358520  0.920054
    O   O7   0.418670  0.499940  0.616210  -0.495943
    O   O8   0.418630  0.500190  0.384220  -0.407095
    C   C4   0.389980  0.499830  0.500180  0.423796
    O   O9   0.964030  0.346260  0.384070  -0.524212
    O   O10  0.964320  0.346570  0.616060  -0.632989
    C   C5   0.964320  0.292910  0.500050  0.515608
    Zn  Zn3  0.964230  0.498080  0.358480  0.977012
    O   O11  0.882890  0.498880  0.616180  -0.600455
    O   O12  0.882860  0.498730  0.384180  -0.550807
    C   C6   0.854200  0.498920  0.500140  0.479411
    O   O13  0.964310  0.650250  0.615860  -0.504323
    O   O14  0.964240  0.649940  0.383870  -0.407149
    C   C7   0.964180  0.703600  0.499880  0.391381
    Zn  Zn4  0.964220  0.498430  0.641450  1.030173
    O   O15  0.045560  0.497410  0.383750  -0.495599
    O   O16  0.045590  0.497950  0.615750  -0.575781
    C   C8   0.074250  0.497230  0.499790  0.403354
    C   C9   0.468250  0.559030  0.882120  0.374812
    S   S1   0.545830  0.414840  0.876390  0.255820
    C   C10  0.531760  0.440990  0.117880  0.007628
    H   H1   0.558330  0.391620  0.141640  0.199437
    S   S2   0.454180  0.585190  0.123610  0.245646
    N   N1   0.500000  0.500020  0.807930  -0.225776
    N   N2   0.500010  0.500010  0.192070  -0.086797
    C   C11  0.520470  0.461980  0.999880  -0.072237
    C   C12  0.479540  0.538040  0.000120  -0.195262
    C   C13  0.499940  0.891180  0.590560  0.254125
    S   S3   0.499870  0.886120  0.369380  0.020574
    C   C14  0.500020  0.108850  0.409440  -0.163600
    H   H2   0.500010  0.130840  0.333700  0.177290
    S   S4   0.500090  0.113910  0.630630  -0.006367
    C   C15  0.499870  0.822840  0.500050  -0.088341
    C   C16  0.500090  0.177190  0.499960  -0.012495
    C   C17  0.499960  0.999970  0.441670  0.062794
    C   C18  0.500000  0.000070  0.558340  -0.081146
    C   C19  0.793700  0.499150  0.500060  0.057092
    C   C20  0.670520  0.499610  0.499900  -0.158619
    C   C21  0.762730  0.499320  0.590170  -0.017888
    C   C22  0.701500  0.499440  0.409800  0.180985
    C   C23  0.701250  0.499550  0.590090  0.131511
    C   C24  0.762980  0.499200  0.409880  -0.266500
    C   C25  0.761250  0.499410  0.718370  0.042862
    C   C26  0.702380  0.499630  0.718290  -0.127935
    H   H3   0.782360  0.499030  0.325720  0.107387
    H   H4   0.782030  0.430270  0.756100  0.000397
    H   H5   0.782230  0.568380  0.755410  0.015902
    H   H6   0.681490  0.568810  0.755970  0.033966
    H   H7   0.681300  0.430700  0.755270  0.040046
    C   C27  0.290590  0.499110  0.409520  0.327106
    S   S5   0.292900  0.498890  0.630710  0.034109
    C   C28  0.173640  0.497950  0.590440  -0.193531
    H   H8   0.161720  0.497770  0.666160  0.164682
    S   S6   0.171330  0.498170  0.369250  0.010236
    C   C29  0.327040  0.499310  0.500100  -0.172558
    C   C30  0.137190  0.497750  0.499870  0.029172
    C   C31  0.232040  0.498470  0.558320  0.100473
    C   C32  0.232190  0.498590  0.441650  -0.135165
    C   C33  0.995910  0.556550  0.117850  0.349542
    S   S7   0.918500  0.412950  0.123580  0.252739
    C   C34  0.932540  0.438690  0.882080  -0.054529
    H   H9   0.906030  0.389490  0.858330  0.222989
    S   S8   0.009940  0.582290  0.876350  0.203777
    N   N3   0.964220  0.497870  0.192040  -0.227088
    N   N4   0.964220  0.497370  0.807900  -0.072632
    C   C35  0.943800  0.459740  0.000080  -0.039702
    C   C36  0.984640  0.535490  0.999850  -0.169852
    C   C37  0.963810  0.889310  0.409390  0.254882
    S   S9   0.963890  0.884530  0.630570  0.020246
    C   C38  0.963470  0.107210  0.590500  -0.161737
    H   H10  0.963450  0.129300  0.666250  0.171147
    S   S10  0.963390  0.111980  0.369320  -0.002499
    C   C39  0.963960  0.821080  0.499900  -0.116930
    C   C40  0.963310  0.175430  0.499990  -0.044920
    C   C41  0.963660  0.998280  0.558280  0.079019
    C   C42  0.963620  0.998230  0.441610  -0.075699
    O   O17  0.425140  0.639150  0.843560  -0.390091
    H   H11  0.405150  0.676310  0.919350  0.344987
    O   O18  0.499950  0.855490  0.713470  -0.503909
    H   H12  0.500020  0.925340  0.770450  0.368262
    O   O19  0.309930  0.499400  0.286650  -0.554500
    H   H13  0.272610  0.499150  0.229610  0.380404
    O   O20  0.038920  0.636390  0.156400  -0.388173
    H   H14  0.058860  0.673300  0.080610  0.349516
    O   O21  0.963840  0.853460  0.286480  -0.500842
    H   H15  0.963690  0.923240  0.229510  0.368579
    C   C43  0.674140  0.499490  0.289530  -0.103498
    H   H16  0.685800  0.437630  0.248590  0.006671
    H   H17  0.633810  0.499820  0.297170  0.031774
    H   H18  0.685870  0.561050  0.248470  0.014216
