data_DB1-Zn2O8N2-irmof14_A-irmof20_A_No103_repeat
_audit_creation_date              2024-02-23
_audit_creation_method            'Materials Studio'
_symmetry_space_group_name_H-M    'P1'
_symmetry_Int_Tables_number       1
_symmetry_cell_setting            triclinic
loop_
_symmetry_equiv_pos_as_xyz
  x,y,z
_cell_length_a                    12.7017
_cell_length_b                    27.7987
_cell_length_c                    14.4219
_cell_angle_alpha                 90.0415
_cell_angle_beta                  89.8755
_cell_angle_gamma                 89.7873
loop_
_atom_site_label
_atom_site_type_symbol
_atom_site_fract_x
_atom_site_fract_y
_atom_site_fract_z
_atom_site_U_iso_or_equiv
_atom_site_adp_type
_atom_site_occupancy
O1     O     0.50097   0.43063   0.59415   0.00000  Uiso   1.00
O2     O     0.50044   0.43063   0.40568   0.00000  Uiso   1.00
C1     C     0.50065   0.40618   0.49993   0.00000  Uiso   1.00
Zn1    Zn    0.50000   0.50001   0.61494   0.00000  Uiso   1.00
O3     O     0.65180   0.50003   0.40558   0.00000  Uiso   1.00
O4     O     0.65187   0.50009   0.59406   0.00000  Uiso   1.00
C2     C     0.70535   0.50004   0.49985   0.00000  Uiso   1.00
O5     O     0.49923   0.56939   0.40585   0.00000  Uiso   1.00
O6     O     0.49936   0.56938   0.59432   0.00000  Uiso   1.00
C3     C     0.49927   0.59383   0.50008   0.00000  Uiso   1.00
Zn2    Zn    0.50001   0.50001   0.38506   0.00000  Uiso   1.00
O7     O     0.34821   0.49989   0.59442   0.00000  Uiso   1.00
O8     O     0.34814   0.50000   0.40594   0.00000  Uiso   1.00
C4     C     0.29466   0.49981   0.50015   0.00000  Uiso   1.00
O9     O     0.50009   0.02629   0.40590   0.00000  Uiso   1.00
O10    O     0.49983   0.02629   0.59437   0.00000  Uiso   1.00
C5     C     0.49985   0.05073   0.50012   0.00000  Uiso   1.00
Zn3    Zn    0.49927   0.95691   0.38511   0.00000  Uiso   1.00
O11    O     0.65137   0.95646   0.59372   0.00000  Uiso   1.00
O12    O     0.65117   0.95639   0.40525   0.00000  Uiso   1.00
C6     C     0.70478   0.95629   0.49919   0.00000  Uiso   1.00
O13    O     0.49897   0.88753   0.59420   0.00000  Uiso   1.00
O14    O     0.49883   0.88754   0.40573   0.00000  Uiso   1.00
C7     C     0.49893   0.86309   0.49998   0.00000  Uiso   1.00
Zn4    Zn    0.49960   0.95692   0.61499   0.00000  Uiso   1.00
O15    O     0.34750   0.95747   0.40638   0.00000  Uiso   1.00
O16    O     0.34770   0.95735   0.59486   0.00000  Uiso   1.00
C8     C     0.29408   0.95770   0.50091   0.00000  Uiso   1.00
C9     C     0.56668   0.46976   0.80077   0.00000  Uiso   1.00
C10    C     0.56342   0.47124   0.89780   0.00000  Uiso   1.00
C11    C     0.62847   0.44173   0.95127   0.00000  Uiso   1.00
H1     H     0.61267   0.44889   0.77037   0.00000  Uiso   1.00
C12    C     0.43333   0.53026   0.80111   0.00000  Uiso   1.00
C13    C     0.43660   0.52878   0.89813   0.00000  Uiso   1.00
C14    C     0.37156   0.55828   0.95194   0.00000  Uiso   1.00
H2     H     0.38733   0.55112   0.77096   0.00000  Uiso   1.00
C15    C     0.43334   0.53025   0.19923   0.00000  Uiso   1.00
C16    C     0.43661   0.52877   0.10220   0.00000  Uiso   1.00
C17    C     0.37156   0.55828   0.04873   0.00000  Uiso   1.00
H3     H     0.38735   0.55112   0.22963   0.00000  Uiso   1.00
C18    C     0.56670   0.46976   0.19889   0.00000  Uiso   1.00
C19    C     0.56343   0.47124   0.10187   0.00000  Uiso   1.00
C20    C     0.62847   0.44173   0.04806   0.00000  Uiso   1.00
H4     H     0.61269   0.44889   0.22904   0.00000  Uiso   1.00
N1     N     0.50000   0.50001   0.75016   0.00000  Uiso   1.00
C21    C     0.50001   0.50001   0.95423   0.00000  Uiso   1.00
N2     N     0.50002   0.50000   0.24984   0.00000  Uiso   1.00
C22    C     0.50001   0.50001   0.04577   0.00000  Uiso   1.00
C23    C     0.49911   0.67866   0.42650   0.00000  Uiso   1.00
S1     S     0.49924   0.67652   0.60619   0.00000  Uiso   1.00
C24    C     0.49909   0.77826   0.57356   0.00000  Uiso   1.00
S2     S     0.49896   0.78040   0.39386   0.00000  Uiso   1.00
C25    C     0.49920   0.64751   0.50006   0.00000  Uiso   1.00
C26    C     0.49900   0.80941   0.50000   0.00000  Uiso   1.00
C27    C     0.49913   0.72848   0.54742   0.00000  Uiso   1.00
C28    C     0.49906   0.72844   0.45264   0.00000  Uiso   1.00
C29    C     0.50025   0.33169   0.41737   0.00000  Uiso   1.00
C30    C     0.50015   0.28135   0.42144   0.00000  Uiso   1.00
C31    C     0.49986   0.25348   0.34088   0.00000  Uiso   1.00
H5     H     0.50013   0.34737   0.36038   0.00000  Uiso   1.00
C32    C     0.50072   0.33177   0.58257   0.00000  Uiso   1.00
C33    C     0.50059   0.28143   0.57855   0.00000  Uiso   1.00
C34    C     0.50075   0.25365   0.65914   0.00000  Uiso   1.00
H6     H     0.50091   0.34751   0.63954   0.00000  Uiso   1.00
C35    C     0.50025   0.12523   0.58268   0.00000  Uiso   1.00
C36    C     0.50035   0.17557   0.57861   0.00000  Uiso   1.00
C37    C     0.50064   0.20343   0.65917   0.00000  Uiso   1.00
H7     H     0.50037   0.10955   0.63966   0.00000  Uiso   1.00
C38    C     0.49978   0.12515   0.41748   0.00000  Uiso   1.00
C39    C     0.49991   0.17549   0.42150   0.00000  Uiso   1.00
C40    C     0.49975   0.20327   0.34091   0.00000  Uiso   1.00
H8     H     0.49959   0.10941   0.36051   0.00000  Uiso   1.00
C41    C     0.50054   0.35807   0.49995   0.00000  Uiso   1.00
C42    C     0.50030   0.25221   0.50001   0.00000  Uiso   1.00
C43    C     0.49996   0.09885   0.50010   0.00000  Uiso   1.00
C44    C     0.50020   0.20471   0.50004   0.00000  Uiso   1.00
C45    C     0.89086   0.49999   0.57349   0.00000  Uiso   1.00
S3     S     0.88656   0.49993   0.39380   0.00000  Uiso   1.00
C46    C     0.10914   0.49986   0.42651   0.00000  Uiso   1.00
S4     S     0.11345   0.49992   0.60620   0.00000  Uiso   1.00
C47    C     0.82283   0.49999   0.49991   0.00000  Uiso   1.00
C48    C     0.17718   0.49986   0.50009   0.00000  Uiso   1.00
C49    C     0.00015   0.49991   0.45261   0.00000  Uiso   1.00
C50    C     0.99986   0.49994   0.54739   0.00000  Uiso   1.00
C51    C     0.56561   0.98697   0.19895   0.00000  Uiso   1.00
C52    C     0.56221   0.98550   0.10194   0.00000  Uiso   1.00
C53    C     0.62711   0.01482   0.04815   0.00000  Uiso   1.00
H9     H     0.61159   0.00770   0.22912   0.00000  Uiso   1.00
C54    C     0.43241   0.92686   0.19927   0.00000  Uiso   1.00
C55    C     0.43554   0.92833   0.10223   0.00000  Uiso   1.00
C56    C     0.37049   0.89901   0.04875   0.00000  Uiso   1.00
H10    H     0.38651   0.90612   0.22965   0.00000  Uiso   1.00
C57    C     0.43186   0.92686   0.80115   0.00000  Uiso   1.00
C58    C     0.43526   0.92833   0.89817   0.00000  Uiso   1.00
C59    C     0.37036   0.89901   0.95196   0.00000  Uiso   1.00
H11    H     0.38588   0.90613   0.77098   0.00000  Uiso   1.00
C60    C     0.56506   0.98698   0.80084   0.00000  Uiso   1.00
C61    C     0.56193   0.98550   0.89787   0.00000  Uiso   1.00
C62    C     0.62698   0.01482   0.95136   0.00000  Uiso   1.00
H12    H     0.61096   0.00771   0.77046   0.00000  Uiso   1.00
N3     N     0.49908   0.95691   0.24989   0.00000  Uiso   1.00
C63    C     0.49880   0.95692   0.04582   0.00000  Uiso   1.00
N4     N     0.49839   0.95692   0.75022   0.00000  Uiso   1.00
C64    C     0.49867   0.95692   0.95428   0.00000  Uiso   1.00
C65    C     0.89019   0.95580   0.42463   0.00000  Uiso   1.00
S5     S     0.88614   0.95588   0.60435   0.00000  Uiso   1.00
C66    C     0.10868   0.95531   0.57054   0.00000  Uiso   1.00
S6     S     0.11273   0.95524   0.39082   0.00000  Uiso   1.00
C67    C     0.82226   0.95600   0.49855   0.00000  Uiso   1.00
C68    C     0.17661   0.95512   0.49662   0.00000  Uiso   1.00
C69    C     0.99965   0.95558   0.54498   0.00000  Uiso   1.00
C70    C     0.99922   0.95554   0.45020   0.00000  Uiso   1.00
C71    C     0.70507   0.40698   0.09868   0.00000  Uiso   1.00
H13    H     0.77623   0.41441   0.08148   0.00000  Uiso   1.00
H14    H     0.69683   0.41061   0.16450   0.00000  Uiso   1.00
H15    H     0.68952   0.37442   0.08137   0.00000  Uiso   1.00
C72    C     0.70506   0.40698   0.90026   0.00000  Uiso   1.00
H16    H     0.68931   0.37441   0.91732   0.00000  Uiso   1.00
H17    H     0.69704   0.41072   0.83448   0.00000  Uiso   1.00
H18    H     0.77620   0.41432   0.91742   0.00000  Uiso   1.00
C73    C     0.29496   0.59303   0.09975   0.00000  Uiso   1.00
H19    H     0.22380   0.58560   0.08279   0.00000  Uiso   1.00
H20    H     0.30321   0.58940   0.16552   0.00000  Uiso   1.00
H21    H     0.31051   0.62559   0.08247   0.00000  Uiso   1.00
C74    C     0.29496   0.59304   0.90132   0.00000  Uiso   1.00
H22    H     0.31071   0.62560   0.91841   0.00000  Uiso   1.00
H23    H     0.30297   0.58930   0.83550   0.00000  Uiso   1.00
H24    H     0.22382   0.58570   0.91874   0.00000  Uiso   1.00
C75    C     0.49942   0.17686   0.24603   0.00000  Uiso   1.00
H25    H     0.56114   0.18557   0.21146   0.00000  Uiso   1.00
H26    H     0.49921   0.14273   0.25612   0.00000  Uiso   1.00
H27    H     0.43771   0.18594   0.21185   0.00000  Uiso   1.00
C76    C     0.49965   0.27980   0.24598   0.00000  Uiso   1.00
H28    H     0.43775   0.27106   0.21192   0.00000  Uiso   1.00
H29    H     0.49992   0.31394   0.25603   0.00000  Uiso   1.00
H30    H     0.56117   0.27068   0.21130   0.00000  Uiso   1.00
C77    C     0.50085   0.17712   0.75407   0.00000  Uiso   1.00
H31    H     0.43917   0.18613   0.78864   0.00000  Uiso   1.00
H32    H     0.50090   0.14298   0.74402   0.00000  Uiso   1.00
H33    H     0.56260   0.18597   0.78825   0.00000  Uiso   1.00
C78    C     0.50108   0.28006   0.75402   0.00000  Uiso   1.00
H34    H     0.56295   0.27109   0.78809   0.00000  Uiso   1.00
H35    H     0.50097   0.31419   0.74393   0.00000  Uiso   1.00
H36    H     0.43952   0.27124   0.78871   0.00000  Uiso   1.00
C79    C     0.70342   0.04936   0.90036   0.00000  Uiso   1.00
H37    H     0.77462   0.04172   0.91722   0.00000  Uiso   1.00
H38    H     0.69510   0.04574   0.83458   0.00000  Uiso   1.00
H39    H     0.68781   0.08196   0.91775   0.00000  Uiso   1.00
C80    C     0.70369   0.04935   0.09879   0.00000  Uiso   1.00
H40    H     0.68784   0.08196   0.08180   0.00000  Uiso   1.00
H41    H     0.69578   0.04564   0.16461   0.00000  Uiso   1.00
H42    H     0.77483   0.04181   0.08127   0.00000  Uiso   1.00
C81    C     0.29378   0.86448   0.90132   0.00000  Uiso   1.00
H43    H     0.22262   0.87211   0.91862   0.00000  Uiso   1.00
H44    H     0.30192   0.86809   0.83550   0.00000  Uiso   1.00
H45    H     0.30943   0.83188   0.91852   0.00000  Uiso   1.00
C82    C     0.29405   0.86448   0.09974   0.00000  Uiso   1.00
H46    H     0.30986   0.83187   0.08257   0.00000  Uiso   1.00
H47    H     0.30215   0.86819   0.16553   0.00000  Uiso   1.00
H48    H     0.22287   0.87202   0.08268   0.00000  Uiso   1.00
O17    O     0.49906   0.66457   0.34068   0.00000  Uiso   1.00
Li1    Li    0.49895   0.69480   0.23738   0.00000  Uiso   1.00
O18    O     0.49913   0.79236   0.65938   0.00000  Uiso   1.00
Li2    Li    0.49924   0.76212   0.76267   0.00000  Uiso   1.00
O19    O     0.85983   0.50004   0.65930   0.00000  Uiso   1.00
Li3    Li    0.92579   0.50005   0.76262   0.00000  Uiso   1.00
O20    O     0.14018   0.49981   0.34070   0.00000  Uiso   1.00
Li4    Li    0.07422   0.49980   0.23738   0.00000  Uiso   1.00
O21    O     0.85903   0.95585   0.33898   0.00000  Uiso   1.00
Li5    Li    0.92485   0.95565   0.23534   0.00000  Uiso   1.00
O22    O     0.13984   0.95527   0.65620   0.00000  Uiso   1.00
Li6    Li    0.07402   0.95547   0.75984   0.00000  Uiso   1.00
