data_DB1-Zn2O8-ADC_A-BDC_A_No247_repeat
_audit_creation_date              2024-02-20
_audit_creation_method            'Materials Studio'
_symmetry_space_group_name_H-M    'P1'
_symmetry_Int_Tables_number       1
_symmetry_cell_setting            triclinic
loop_
_symmetry_equiv_pos_as_xyz
  x,y,z
_cell_length_a                    10.9006
_cell_length_b                    37.0048
_cell_length_c                    10.0000
_cell_angle_alpha                 90.0000
_cell_angle_beta                  90.0000
_cell_angle_gamma                 106.9500
loop_
_atom_site_label
_atom_site_type_symbol
_atom_site_fract_x
_atom_site_fract_y
_atom_site_fract_z
_atom_site_U_iso_or_equiv
_atom_site_adp_type
_atom_site_occupancy
O1     O     0.32333   0.50033   0.63580   0.00000  Uiso   1.00
O2     O     0.32314   0.49997   0.36399   0.00000  Uiso   1.00
C1     C     0.26084   0.50009   0.49992   0.00000  Uiso   1.00
Zn1    Zn    0.50003   0.50011   0.66577   0.00000  Uiso   1.00
O3     O     0.55428   0.55438   0.36380   0.00000  Uiso   1.00
O4     O     0.55450   0.55458   0.63562   0.00000  Uiso   1.00
C2     C     0.57346   0.57369   0.49974   0.00000  Uiso   1.00
O5     O     0.67677   0.49974   0.36420   0.00000  Uiso   1.00
O6     O     0.67682   0.49997   0.63601   0.00000  Uiso   1.00
C3     C     0.73916   0.49988   0.50008   0.00000  Uiso   1.00
Zn2    Zn    0.50000   0.49989   0.33423   0.00000  Uiso   1.00
O7     O     0.44550   0.44562   0.63620   0.00000  Uiso   1.00
O8     O     0.44575   0.44542   0.36438   0.00000  Uiso   1.00
C4     C     0.42616   0.42632   0.50026   0.00000  Uiso   1.00
O9     O     0.81916   0.99979   0.27342   0.00000  Uiso   1.00
O10    O     0.81974   0.00016   0.54523   0.00000  Uiso   1.00
C5     C     0.75720   0.00007   0.40930   0.00000  Uiso   1.00
Zn3    Zn    0.99620   0.99991   0.24343   0.00000  Uiso   1.00
O11    O     0.94273   0.94564   0.54541   0.00000  Uiso   1.00
O12    O     0.94251   0.94543   0.27359   0.00000  Uiso   1.00
C6     C     0.92355   0.92633   0.40948   0.00000  Uiso   1.00
O13    O     0.17361   0.00018   0.54497   0.00000  Uiso   1.00
O14    O     0.17318   0.99995   0.27317   0.00000  Uiso   1.00
C7     C     0.23567   0.00000   0.40908   0.00000  Uiso   1.00
Zn4    Zn    0.99664   0.00013   0.57496   0.00000  Uiso   1.00
O15    O     0.04987   0.05439   0.27298   0.00000  Uiso   1.00
O16    O     0.05055   0.05460   0.54480   0.00000  Uiso   1.00
C8     C     0.06887   0.07370   0.40891   0.00000  Uiso   1.00
C9     C     0.88166   0.88414   0.40941   0.00000  Uiso   1.00
C10    C     0.86143   0.86375   0.53029   0.00000  Uiso   1.00
C11    C     0.82214   0.82418   0.53040   0.00000  Uiso   1.00
C12    C     0.80193   0.80383   0.40905   0.00000  Uiso   1.00
C13    C     0.82223   0.82428   0.28847   0.00000  Uiso   1.00
C14    C     0.86148   0.86381   0.28845   0.00000  Uiso   1.00
C15    C     0.76011   0.76170   0.40149   0.00000  Uiso   1.00
C16    C     0.73690   0.73832   0.50778   0.00000  Uiso   1.00
C17    C     0.67478   0.67574   0.62078   0.00000  Uiso   1.00
C18    C     0.69508   0.69619   0.50020   0.00000  Uiso   1.00
C19    C     0.67487   0.67584   0.37885   0.00000  Uiso   1.00
C20    C     0.63558   0.63627   0.37894   0.00000  Uiso   1.00
C21    C     0.61534   0.61588   0.49982   0.00000  Uiso   1.00
C22    C     0.63552   0.63620   0.62078   0.00000  Uiso   1.00
H1     H     0.87623   0.87866   0.62485   0.00000  Uiso   1.00
H2     H     0.80821   0.81014   0.62607   0.00000  Uiso   1.00
H3     H     0.68936   0.69042   0.71579   0.00000  Uiso   1.00
H4     H     0.68880   0.68988   0.28317   0.00000  Uiso   1.00
H5     H     0.74842   0.74993   0.30208   0.00000  Uiso   1.00
H6     H     0.74859   0.75009   0.60719   0.00000  Uiso   1.00
C23    C     0.11164   0.11589   0.40898   0.00000  Uiso   1.00
C24    C     0.13208   0.13625   0.52992   0.00000  Uiso   1.00
C25    C     0.17219   0.17583   0.53015   0.00000  Uiso   1.00
C26    C     0.19305   0.19620   0.40886   0.00000  Uiso   1.00
C27    C     0.17255   0.17578   0.28822   0.00000  Uiso   1.00
C28    C     0.13247   0.13625   0.28808   0.00000  Uiso   1.00
C29    C     0.23576   0.23833   0.40143   0.00000  Uiso   1.00
C30    C     0.25926   0.26169   0.50779   0.00000  Uiso   1.00
C31    C     0.32249   0.32424   0.62098   0.00000  Uiso   1.00
C32    C     0.30198   0.30382   0.50035   0.00000  Uiso   1.00
C33    C     0.32284   0.32419   0.37905   0.00000  Uiso   1.00
C34    C     0.36295   0.36376   0.37927   0.00000  Uiso   1.00
C35    C     0.38339   0.38413   0.50021   0.00000  Uiso   1.00
C36    C     0.36256   0.36378   0.62111   0.00000  Uiso   1.00
H7     H     0.11679   0.12132   0.62443   0.00000  Uiso   1.00
H8     H     0.18623   0.18984   0.62586   0.00000  Uiso   1.00
H9     H     0.30742   0.30953   0.71595   0.00000  Uiso   1.00
H10    H     0.30879   0.31018   0.28333   0.00000  Uiso   1.00
H11    H     0.24788   0.25013   0.30205   0.00000  Uiso   1.00
H12    H     0.24715   0.24989   0.60717   0.00000  Uiso   1.00
C37    C     0.87146   0.49993   0.50004   0.00000  Uiso   1.00
C38    C     0.12855   0.50004   0.49996   0.00000  Uiso   1.00
C39    C     0.93604   0.49986   0.38008   0.00000  Uiso   1.00
C40    C     0.06396   0.50011   0.61992   0.00000  Uiso   1.00
C41    C     0.06370   0.49991   0.38004   0.00000  Uiso   1.00
C42    C     0.93630   0.50006   0.61996   0.00000  Uiso   1.00
H13    H     0.10810   0.50020   0.70305   0.00000  Uiso   1.00
H14    H     0.10766   0.49986   0.29689   0.00000  Uiso   1.00
H15    H     0.89235   0.50011   0.70312   0.00000  Uiso   1.00
C43    C     0.36778   0.99987   0.40911   0.00000  Uiso   1.00
C44    C     0.62451   0.99961   0.40916   0.00000  Uiso   1.00
C45    C     0.43249   0.99991   0.52906   0.00000  Uiso   1.00
C46    C     0.55980   0.99957   0.28921   0.00000  Uiso   1.00
C47    C     0.55997   0.99978   0.52909   0.00000  Uiso   1.00
C48    C     0.43232   0.99970   0.28918   0.00000  Uiso   1.00
H16    H     0.60373   0.99946   0.20607   0.00000  Uiso   1.00
H17    H     0.60401   0.99981   0.61224   0.00000  Uiso   1.00
H18    H     0.38828   0.99968   0.20603   0.00000  Uiso   1.00
C49    C     0.88269   0.88518   0.15289   0.00000  Uiso   1.00
H19    H     0.94800   0.87845   0.10297   0.00000  Uiso   1.00
H20    H     0.90904   0.91192   0.16904   0.00000  Uiso   1.00
H21    H     0.80414   0.87840   0.10281   0.00000  Uiso   1.00
C50    C     0.80132   0.80323   0.15228   0.00000  Uiso   1.00
H22    H     0.73612   0.81008   0.10257   0.00000  Uiso   1.00
H23    H     0.77493   0.77646   0.16765   0.00000  Uiso   1.00
H24    H     0.87998   0.81013   0.10239   0.00000  Uiso   1.00
C51    C     0.61436   0.61490   0.24338   0.00000  Uiso   1.00
H25    H     0.54904   0.62164   0.19347   0.00000  Uiso   1.00
H26    H     0.58800   0.58817   0.25954   0.00000  Uiso   1.00
H27    H     0.69290   0.62168   0.19329   0.00000  Uiso   1.00
C52    C     0.61431   0.61483   0.75635   0.00000  Uiso   1.00
H28    H     0.69296   0.62152   0.80625   0.00000  Uiso   1.00
H29    H     0.58759   0.58810   0.74018   0.00000  Uiso   1.00
H30    H     0.54928   0.62165   0.80643   0.00000  Uiso   1.00
C53    C     0.11107   0.11491   0.15245   0.00000  Uiso   1.00
H31    H     0.04613   0.12180   0.10242   0.00000  Uiso   1.00
H32    H     0.08412   0.08817   0.16852   0.00000  Uiso   1.00
H33    H     0.18971   0.12156   0.10253   0.00000  Uiso   1.00
C54    C     0.19414   0.19687   0.15209   0.00000  Uiso   1.00
H34    H     0.25915   0.18988   0.10250   0.00000  Uiso   1.00
H35    H     0.22106   0.22363   0.16755   0.00000  Uiso   1.00
H36    H     0.11557   0.19012   0.10205   0.00000  Uiso   1.00
C55    C     0.38487   0.38517   0.24377   0.00000  Uiso   1.00
H37    H     0.44999   0.37830   0.19398   0.00000  Uiso   1.00
H38    H     0.41175   0.41190   0.26001   0.00000  Uiso   1.00
H39    H     0.30642   0.37854   0.19353   0.00000  Uiso   1.00
C56    C     0.38397   0.38511   0.75674   0.00000  Uiso   1.00
H40    H     0.30523   0.37855   0.80649   0.00000  Uiso   1.00
H41    H     0.41128   0.41185   0.74066   0.00000  Uiso   1.00
H42    H     0.44863   0.37814   0.80694   0.00000  Uiso   1.00
O17    O     0.87637   0.49974   0.26769   0.00000  Uiso   1.00
Li1    Li    0.92211   0.49962   0.10405   0.00000  Uiso   1.00
O18    O     0.37310   0.00006   0.64146   0.00000  Uiso   1.00
Li2    Li    0.41907   0.00016   0.80509   0.00000  Uiso   1.00
