# Generated by REPEAT Assigner based on pymatgen
data_DB1-Zn2O8-ADC_A-BDC_A_No1153
_audit_creation_date              2022-05-24
_audit_creation_method            REPEAT_Assigner
_cell_length_a                    10.900600
_cell_length_b                    37.004800
_cell_length_c                    10.000000
_cell_angle_alpha                 90.000000
_cell_angle_beta                  90.000000
_cell_angle_gamma                 106.950000
_cell_volume                      3858.517457
_symmetry_space_group_name_H-M    P1
_symmetry_Int_Tables_number       1
loop_
    _symmetry_equiv_pos_site_id
    _symmetry_equiv_pos_as_xyz
    1  x,y,z
loop_
    _atom_site_type_symbol
    _atom_site_label
    _atom_site_fract_x
    _atom_site_fract_y
    _atom_site_fract_z
    _atom_type_partial_charge
    O   O1   0.323330  0.500330  0.635800  -0.387155
    O   O2   0.323140  0.499970  0.363990  -0.573110
    C   C1   0.260840  0.500090  0.499920  0.247251
    Zn  Zn1  0.500030  0.500110  0.665770  1.260992
    O   O3   0.554280  0.554380  0.363800  -0.567516
    O   O4   0.554500  0.554580  0.635620  -0.563426
    C   C2   0.573460  0.573690  0.499740  0.392515
    O   O5   0.676770  0.499740  0.364200  -0.384285
    O   O6   0.676820  0.499970  0.636010  -0.574738
    C   C3   0.739160  0.499880  0.500080  0.245934
    Zn  Zn2  0.500000  0.499890  0.334230  1.254873
    O   O7   0.445500  0.445620  0.636200  -0.625128
    O   O8   0.445750  0.445420  0.364380  -0.629323
    C   C4   0.426160  0.426320  0.500260  0.442945
    O   O9   0.819160  0.999790  0.273420  -0.386667
    O   O10  0.819740  0.000160  0.545230  -0.573651
    C   C5   0.757200  0.000070  0.409300  0.243080
    Zn  Zn3  0.996200  0.999910  0.243430  1.257493
    O   O11  0.942730  0.945640  0.545410  -0.569375
    O   O12  0.942510  0.945430  0.273590  -0.558769
    C   C6   0.923550  0.926330  0.409480  0.392223
    O   O13  0.173610  0.000180  0.544970  -0.384100
    O   O14  0.173180  0.999950  0.273170  -0.573820
    C   C7   0.235670  0.000000  0.409080  0.246068
    Zn  Zn4  0.996640  0.000130  0.574960  1.255563
    O   O15  0.049870  0.054390  0.272980  -0.626173
    O   O16  0.050550  0.054600  0.544800  -0.627670
    C   C8   0.068870  0.073700  0.408910  0.448430
    C   C9   0.881660  0.884140  0.409410  -0.105403
    C   C10  0.861430  0.863750  0.530290  0.194035
    C   C11  0.822140  0.824180  0.530400  0.215183
    C   C12  0.801930  0.803830  0.409050  -0.292277
    C   C13  0.822230  0.824280  0.288470  0.205591
    C   C14  0.861480  0.863810  0.288450  0.195183
    C   C15  0.760110  0.761700  0.401490  0.069953
    C   C16  0.736900  0.738320  0.507780  0.061629
    C   C17  0.674780  0.675740  0.620780  0.210329
    C   C18  0.695080  0.696190  0.500200  -0.291005
    C   C19  0.674870  0.675840  0.378850  0.215926
    C   C20  0.635580  0.636270  0.378940  0.189392
    C   C21  0.615340  0.615880  0.499820  -0.100951
    C   C22  0.635520  0.636200  0.620780  0.191149
    H   H1   0.748420  0.749930  0.302080  0.024367
    H   H2   0.748590  0.750090  0.607190  0.028754
    C   C23  0.111640  0.115890  0.408980  -0.119655
    C   C24  0.132080  0.136250  0.529920  0.204093
    C   C25  0.172190  0.175830  0.530150  0.211065
    C   C26  0.193050  0.196200  0.408860  -0.283290
    C   C27  0.172550  0.175780  0.288220  0.199887
    C   C28  0.132470  0.136250  0.288080  0.205292
    C   C29  0.235760  0.238330  0.401430  0.063661
    C   C30  0.259260  0.261690  0.507790  0.064015
    C   C31  0.322490  0.324240  0.620980  0.200786
    C   C32  0.301980  0.303820  0.500350  -0.280397
    C   C33  0.322840  0.324190  0.379050  0.208654
    C   C34  0.362950  0.363760  0.379270  0.198684
    C   C35  0.383390  0.384130  0.500210  -0.108376
    C   C36  0.362560  0.363780  0.621110  0.200285
    H   H3   0.247880  0.250130  0.302050  0.031624
    H   H4   0.247150  0.249890  0.607170  0.027272
    C   C37  0.871460  0.499930  0.500040  0.285555
    C   C38  0.128550  0.500040  0.499960  0.277791
    C   C39  0.936040  0.499860  0.380080  0.008910
    C   C40  0.063960  0.500110  0.619920  0.018222
    C   C41  0.063700  0.499910  0.380040  -0.238812
    C   C42  0.936300  0.500060  0.619960  -0.252769
    H   H5   0.107660  0.499860  0.296890  0.228822
    H   H6   0.892350  0.500110  0.703120  0.234180
    C   C43  0.367780  0.999870  0.409110  0.274909
    C   C44  0.624510  0.999610  0.409160  0.290175
    C   C45  0.432490  0.999910  0.529060  0.024304
    C   C46  0.559800  0.999570  0.289210  0.003742
    C   C47  0.559970  0.999780  0.529090  -0.252579
    C   C48  0.432320  0.999700  0.289180  -0.239551
    H   H7   0.604010  0.999810  0.612240  0.232507
    H   H8   0.388280  0.999680  0.206030  0.230895
    O   O17  0.882110  0.884600  0.156590  -0.477804
    H   H9   0.912790  0.915510  0.175280  0.416599
    O   O18  0.801890  0.803800  0.156000  -0.415621
    H   H10  0.771170  0.772850  0.173780  0.347407
    O   O19  0.882070  0.884540  0.662150  -0.496709
    H   H11  0.912760  0.915450  0.643440  0.433562
    O   O20  0.802630  0.804520  0.664410  -0.404349
    H   H12  0.771800  0.773470  0.649020  0.287395
    O   O21  0.694380  0.695500  0.244830  -0.407108
    H   H13  0.725210  0.726550  0.260220  0.291774
    O   O22  0.614940  0.615480  0.247080  -0.495048
    H   H14  0.584250  0.584580  0.265780  0.433093
    O   O23  0.695110  0.696210  0.753250  -0.415547
    H   H15  0.725830  0.727160  0.735480  0.346689
    O   O24  0.614890  0.615410  0.752640  -0.479384
    H   H16  0.584210  0.584510  0.733940  0.417855
    O   O25  0.111650  0.115490  0.156160  -0.470762
    H   H17  0.080290  0.084580  0.174750  0.416621
    O   O26  0.193550  0.196290  0.155820  -0.413792
    H   H18  0.224890  0.227240  0.173690  0.348622
    O   O27  0.110750  0.115430  0.661710  -0.491305
    H   H19  0.079460  0.084530  0.642910  0.434027
    O   O28  0.191860  0.195450  0.664220  -0.402370
    H   H20  0.223370  0.226510  0.648930  0.289431
    O   O29  0.303170  0.304570  0.244980  -0.401901
    H   H21  0.271660  0.273510  0.260260  0.287222
    O   O30  0.384270  0.384580  0.247470  -0.490160
    H   H22  0.415560  0.415480  0.266260  0.435562
    O   O31  0.301480  0.303740  0.753390  -0.413286
    H   H23  0.270140  0.272790  0.735530  0.348481
    O   O32  0.383380  0.384530  0.753030  -0.469367
    H   H24  0.414750  0.415440  0.734430  0.415033
    O   O33  0.782540  0.524360  0.231880  -0.242176
    O   O34  0.882680  0.474950  0.138680  -0.280476
    N   N1   0.866540  0.499720  0.249180  0.261733
    O   O35  0.266140  0.525010  0.767610  -0.238650
    O   O36  0.068640  0.475620  0.861840  -0.281459
    N   N2   0.133460  0.500250  0.750830  0.257079
    O   O37  0.230460  0.975510  0.677300  -0.240508
    O   O38  0.428650  0.024840  0.770460  -0.280111
    N   N3   0.363320  0.000090  0.659980  0.256494
    O   O39  0.712420  0.974570  0.141500  -0.244475
    O   O40  0.613060  0.024040  0.047280  -0.280688
    N   N4   0.628980  0.999390  0.158290  0.264162
