# Generated by REPEAT Assigner based on pymatgen
data_DB1-Cu2O8N2-DPAC_A-irmof7_A_No73
_audit_creation_date              2022-05-24
_audit_creation_method            REPEAT_Assigner
_cell_length_a                    27.915400
_cell_length_b                    17.372200
_cell_length_c                    15.850000
_cell_angle_alpha                 89.994400
_cell_angle_beta                  89.993100
_cell_angle_gamma                 89.866000
_cell_volume                      7686.466690
_symmetry_space_group_name_H-M    P1
_symmetry_Int_Tables_number       1
loop_
    _symmetry_equiv_pos_site_id
    _symmetry_equiv_pos_as_xyz
    1  x,y,z
loop_
    _atom_site_type_symbol
    _atom_site_label
    _atom_site_fract_x
    _atom_site_fract_y
    _atom_site_fract_z
    _atom_type_partial_charge
    Cu  Cu1   0.500010  0.500000  0.419710  1.123725
    Cu  Cu2   0.500000  0.499990  0.580290  0.878658
    O   O1    0.562290  0.499970  0.425120  -0.583020
    O   O2    0.437590  0.500250  0.425130  -0.545230
    O   O3    0.499880  0.600300  0.425120  -0.495545
    O   O4    0.500010  0.399920  0.425130  -0.541523
    O   O5    0.500110  0.399690  0.574880  -0.532913
    O   O6    0.500010  0.600070  0.574870  -0.482449
    O   O7    0.437660  0.500120  0.574880  -0.516496
    O   O8    0.562410  0.499720  0.574870  -0.576176
    C   C1    0.589840  0.499820  0.500000  0.639819
    C   C2    0.410160  0.500170  0.500010  0.532724
    C   C3    0.499950  0.644360  0.499990  0.514171
    C   C4    0.500060  0.355630  0.500010  0.621326
    Cu  Cu3   0.877680  0.499440  0.580300  0.895119
    Cu  Cu4   0.877690  0.499990  0.419720  1.134014
    O   O9    0.815400  0.499530  0.574890  -0.584954
    O   O10   0.940100  0.499620  0.574880  -0.524016
    O   O11   0.877580  0.599760  0.575290  -0.483230
    O   O12   0.877920  0.399380  0.574490  -0.530593
    O   O13   0.877810  0.399670  0.424730  -0.543593
    O   O14   0.877440  0.600050  0.425530  -0.501094
    O   O15   0.940030  0.500010  0.425130  -0.552474
    O   O16   0.815280  0.499790  0.425140  -0.581406
    C   C5    0.787840  0.499680  0.500010  0.645915
    C   C6    0.967530  0.499750  0.500000  0.539031
    C   C7    0.877400  0.644080  0.500590  0.513182
    C   C8    0.877970  0.355350  0.499430  0.602054
    N   N1    0.500010  0.500000  0.300380  -0.436003
    C   C9    0.469260  0.549480  0.253920  0.417398
    C   C10   0.469160  0.549620  0.165080  -0.523658
    C   C11   0.500000  0.499990  0.120060  0.794645
    C   C12   0.530840  0.450370  0.165070  -0.549798
    C   C13   0.530760  0.450520  0.253910  0.439323
    C   C14   0.499990  0.500000  0.037720  -0.166830
    C   C15   0.499990  0.500000  0.962280  -0.315582
    C   C16   0.499990  0.499990  0.879950  0.903500
    C   C17   0.469140  0.549600  0.834930  -0.526190
    C   C18   0.469230  0.549450  0.746080  0.352180
    N   N2    0.499990  0.499990  0.699620  -0.211320
    C   C19   0.530750  0.450530  0.746080  0.121760
    C   C20   0.530840  0.450380  0.834930  -0.540236
    H   H1    0.446460  0.586160  0.284760  0.029633
    H   H2    0.553560  0.413840  0.284740  0.026619
    H   H3    0.446420  0.586120  0.715250  0.049901
    H   H4    0.553560  0.413860  0.715250  0.264863
    C   C21   0.500040  0.274060  0.500010  -0.366784
    C   C22   0.499980  0.231680  0.423450  0.253851
    C   C23   0.499960  0.150620  0.423220  -0.452161
    C   C24   0.500010  0.109530  0.499990  0.751087
    C   C25   0.500070  0.150590  0.576780  -0.479122
    C   C26   0.500090  0.231650  0.576560  0.339198
    C   C27   0.500000  0.034410  0.499990  -0.217946
    C   C28   0.499990  0.965580  0.499980  -0.234604
    C   C29   0.499970  0.890460  0.499980  0.744673
    C   C30   0.499900  0.849390  0.423200  -0.447729
    C   C31   0.499890  0.768330  0.423430  0.242761
    C   C32   0.499950  0.725930  0.499990  -0.267653
    C   C33   0.500030  0.768320  0.576540  0.229053
    C   C34   0.500040  0.849380  0.576770  -0.439053
    H   H5    0.499940  0.259810  0.366700  0.037017
    H   H6    0.500130  0.259770  0.633310  0.009859
    H   H7    0.499830  0.740210  0.366680  0.026699
    H   H8    0.500080  0.740190  0.633290  0.031829
    C   C35   0.735570  0.499720  0.500010  -0.197668
    C   C36   0.711000  0.549660  0.445490  0.175979
    C   C37   0.711100  0.449810  0.554530  0.075859
    C   C38   0.736850  0.598410  0.392240  -0.276456
    C   C39   0.713760  0.648930  0.337080  -0.079368
    H   H9    0.770110  0.597060  0.393680  0.174172
    H   H10   0.731030  0.681300  0.301720  0.116929
    C   C40   0.642120  0.499790  0.500000  -0.205638
    C   C41   0.666690  0.449840  0.554520  0.093443
    C   C42   0.666590  0.549690  0.445480  0.193018
    C   C43   0.640630  0.598480  0.392230  -0.282116
    C   C44   0.663610  0.648970  0.337080  -0.082163
    H   H11   0.607370  0.597190  0.393660  0.178384
    H   H12   0.646280  0.681370  0.301710  0.117961
    C   C45   0.018290  0.499810  0.500010  -0.237565
    C   C46   0.044670  0.499750  0.576560  0.214872
    C   C47   0.095110  0.499800  0.576790  -0.452048
    C   C48   0.120680  0.499910  0.500020  0.763418
    C   C49   0.095120  0.499970  0.423230  -0.452082
    C   C50   0.044680  0.499920  0.423460  0.209683
    C   C51   0.167430  0.499960  0.500020  -0.233998
    C   C52   0.210260  0.500000  0.500030  -0.234782
    C   C53   0.257010  0.500040  0.500020  0.761608
    C   C54   0.282570  0.500010  0.576800  -0.449555
    C   C55   0.333010  0.500050  0.576570  0.212896
    C   C56   0.359400  0.500130  0.500010  -0.236072
    C   C57   0.333020  0.500170  0.423460  0.210151
    C   C58   0.282570  0.500120  0.423240  -0.450394
    H   H13   0.027160  0.499670  0.633320  0.038659
    H   H14   0.027180  0.499970  0.366700  0.044989
    H   H15   0.350520  0.500020  0.633320  0.038275
    H   H16   0.350530  0.500230  0.366710  0.043866
    N   N3    0.877670  0.502470  0.699640  -0.213110
    C   C59   0.908310  0.551740  0.746290  0.354477
    C   C60   0.908410  0.551580  0.835130  -0.525364
    C   C61   0.877690  0.501850  0.879960  0.895583
    C   C62   0.846960  0.452420  0.834750  -0.530101
    C   C63   0.847040  0.452880  0.745910  0.115071
    C   C64   0.877690  0.501560  0.962300  -0.310636
    C   C65   0.877700  0.501310  0.037730  -0.170498
    C   C66   0.877700  0.501020  0.120070  0.799799
    C   C67   0.908430  0.550420  0.165280  -0.527132
    C   C68   0.908340  0.549970  0.254120  0.418605
    N   N4    0.877700  0.500400  0.300390  -0.432265
    C   C69   0.847050  0.451140  0.253740  0.427863
    C   C70   0.846960  0.451300  0.164890  -0.548547
    H   H17   0.931020  0.588490  0.715590  0.049891
    H   H18   0.824330  0.416340  0.714940  0.262701
    H   H19   0.931060  0.586500  0.285100  0.029792
    H   H20   0.824330  0.414400  0.284420  0.031580
    C   C71   0.875840  0.273770  0.503040  -0.339793
    C   C72   0.876000  0.231130  0.579430  0.329935
    C   C73   0.876210  0.150070  0.579340  -0.480419
    C   C74   0.876250  0.109250  0.502400  0.754049
    C   C75   0.876090  0.150570  0.425780  -0.448067
    C   C76   0.875890  0.231630  0.426320  0.232926
    C   C77   0.876440  0.034130  0.502120  -0.218520
    C   C78   0.876610  0.965300  0.501860  -0.237427
    C   C79   0.876800  0.890180  0.501560  0.746116
    C   C80   0.876970  0.848850  0.578170  -0.435813
    C   C81   0.877170  0.767790  0.577630  0.223447
    C   C82   0.877210  0.725650  0.500910  -0.263463
    C   C83   0.877030  0.768300  0.424520  0.239528
    C   C84   0.876830  0.849360  0.424610  -0.447461
    H   H21   0.875970  0.259070  0.636290  0.014868
    H   H22   0.875780  0.259950  0.369670  0.043218
    H   H23   0.877300  0.739470  0.634270  0.034022
    H   H24   0.877050  0.740360  0.367660  0.028647
    Br  Br1   0.576960  0.376160  0.101880  0.028824
    Br  Br2   0.423030  0.623830  0.101910  0.024156
    Br  Br3   0.576980  0.376200  0.898110  0.057902
    Br  Br4   0.423000  0.623780  0.898100  0.025149
    Br  Br5   0.500150  0.092930  0.691590  0.033046
    Br  Br6   0.499860  0.092990  0.308390  0.028894
    Br  Br7   0.500150  0.907010  0.691580  0.031290
    Br  Br8   0.499800  0.907040  0.308390  0.031910
    Br  Br9   0.131010  0.500140  0.308420  0.029148
    Br  Br10  0.130970  0.499710  0.691620  0.029101
    Br  Br11  0.246710  0.500190  0.308420  0.028800
    Br  Br12  0.246690  0.499890  0.691620  0.028940
    Br  Br13  0.801010  0.378070  0.897650  0.054570
    Br  Br14  0.954370  0.625500  0.898590  0.024261
    Br  Br15  0.800990  0.377400  0.101420  0.028997
    Br  Br16  0.954400  0.624750  0.102400  0.024182
    Br  Br17  0.876160  0.093310  0.310740  0.028769
    Br  Br18  0.876440  0.092050  0.693940  0.035019
    Br  Br19  0.876580  0.907390  0.310020  0.032154
    Br  Br20  0.876940  0.906100  0.693220  0.030200
    Br  Br21  0.628680  0.377110  0.633980  -0.149822
    Br  Br22  0.749270  0.377020  0.633990  -0.139462
