# Generated by REPEAT Assigner based on pymatgen
data_DB1-Al2O6-ADC_B-irmof20_B_No214
_audit_creation_date              2022-05-24
_audit_creation_method            REPEAT_Assigner
_cell_length_a                    17.055600
_cell_length_b                    24.334200
_cell_length_c                    6.607200
_cell_angle_alpha                 90.000000
_cell_angle_beta                  90.000000
_cell_angle_gamma                 45.501500
_cell_volume                      1955.936517
_symmetry_space_group_name_H-M    P1
_symmetry_Int_Tables_number       1
loop_
    _symmetry_equiv_pos_site_id
    _symmetry_equiv_pos_as_xyz
    1  x,y,z
loop_
    _atom_site_type_symbol
    _atom_site_label
    _atom_site_fract_x
    _atom_site_fract_y
    _atom_site_fract_z
    _atom_type_partial_charge
    Al  Al1  0.500000  0.500000  0.000000  0.865080
    Al  Al2  0.500000  0.500000  0.500000  0.658239
    O   O1   0.642300  0.429830  0.076290  -0.402873
    O   O2   0.501960  0.570170  0.423710  -0.336156
    O   O3   0.357700  0.570170  0.576290  -0.323407
    O   O4   0.498040  0.429830  0.923710  -0.360089
    O   O5   0.357700  0.570170  0.923710  -0.406678
    O   O6   0.498040  0.429830  0.576290  -0.357187
    O   O7   0.642300  0.429830  0.423710  -0.322417
    O   O8   0.501960  0.570170  0.076290  -0.372555
    O   O9   0.534180  0.500000  0.750000  -0.540382
    O   O10  0.465820  0.500000  0.250000  -0.544691
    C   C1   0.692440  0.404620  0.250000  0.511738
    C   C2   0.501680  0.595380  0.250000  0.504927
    C   C3   0.307560  0.595380  0.750000  0.513953
    C   C4   0.498320  0.404620  0.750000  0.512617
    H   H1   0.590780  0.500000  0.750000  0.339721
    H   H2   0.409220  0.500000  0.250000  0.346407
    Al  Al3  0.500000  0.000000  0.000000  0.656530
    Al  Al4  0.500000  0.000000  0.500000  0.863329
    O   O11  0.357700  0.070170  0.076290  -0.322348
    O   O12  0.498040  0.929830  0.423710  -0.371660
    O   O13  0.642300  0.929830  0.576290  -0.406199
    O   O14  0.501960  0.070170  0.923710  -0.356569
    O   O15  0.642300  0.929830  0.923710  -0.322998
    O   O16  0.501960  0.070170  0.576290  -0.359597
    O   O17  0.357700  0.070170  0.423710  -0.403062
    O   O18  0.498040  0.929830  0.076290  -0.335654
    O   O19  0.465820  0.000000  0.750000  -0.539310
    O   O20  0.534180  0.000000  0.250000  -0.543014
    C   C5   0.307560  0.095380  0.250000  0.512568
    C   C6   0.498320  0.904620  0.250000  0.504126
    C   C7   0.692440  0.904620  0.750000  0.513361
    C   C8   0.501680  0.095380  0.750000  0.512071
    H   H3   0.409220  0.000000  0.750000  0.339459
    H   H4   0.590780  0.000000  0.250000  0.345373
    C   C9   0.500620  0.692850  0.089460  0.018399
    S   S1   0.500650  0.690290  0.481690  -0.103291
    C   C10  0.499380  0.807150  0.410540  0.019417
    S   S2   0.499350  0.809710  0.018320  -0.103424
    C   C11  0.501010  0.657020  0.250000  -0.129642
    C   C12  0.498990  0.842970  0.250000  -0.129653
    C   C13  0.500000  0.750000  0.353440  0.026767
    C   C14  0.500000  0.750000  0.146560  0.027238
    C   C15  0.499380  0.307150  0.589460  0.008188
    S   S3   0.499350  0.309710  0.981690  -0.098730
    C   C16  0.500620  0.192850  0.910540  0.009249
    S   S4   0.500650  0.190290  0.518320  -0.098837
    C   C17  0.498990  0.342970  0.750000  -0.129184
    C   C18  0.501010  0.157020  0.750000  -0.129398
    C   C19  0.500000  0.250000  0.853440  0.029708
    C   C20  0.500000  0.250000  0.646560  0.030085
    C   C21  0.113680  0.692850  0.910540  0.009864
    S   S5   0.118770  0.690290  0.518320  -0.111930
    C   C22  0.886320  0.807150  0.589460  0.009207
    S   S6   0.881230  0.809710  0.981690  -0.112304
    C   C23  0.184940  0.657020  0.750000  -0.121831
    C   C24  0.815060  0.842970  0.750000  -0.121049
    C   C25  0.000000  0.750000  0.646560  0.032082
    C   C26  0.000000  0.750000  0.853440  0.031955
    C   C27  0.886320  0.307150  0.089460  0.007686
    S   S7   0.881230  0.309710  0.481690  -0.115085
    C   C28  0.113680  0.192850  0.410540  0.008879
    S   S8   0.118770  0.190290  0.018320  -0.114631
    C   C29  0.815060  0.342970  0.250000  -0.119680
    C   C30  0.184940  0.157020  0.250000  -0.121024
    C   C31  0.000000  0.250000  0.353440  0.033960
    C   C32  0.000000  0.250000  0.146560  0.034186
    C   C33  0.500830  0.673540  0.865410  -0.259028
    H   H5   0.436560  0.683310  0.839760  0.098842
    H   H6   0.500650  0.705130  0.777980  0.194345
    H   H7   0.565420  0.620220  0.839920  0.080755
    C   C34  0.499170  0.826460  0.634600  -0.262276
    H   H8   0.434420  0.879720  0.660240  0.081785
    H   H9   0.499680  0.794700  0.722030  0.195981
    H   H10  0.563280  0.816910  0.660080  0.099064
    C   C35  0.499170  0.326460  0.365410  -0.246582
    H   H11  0.563440  0.316690  0.339760  0.095580
    H   H12  0.499350  0.294870  0.277980  0.190999
    H   H13  0.434580  0.379780  0.339920  0.075349
    C   C36  0.500830  0.173540  0.134600  -0.250120
    H   H14  0.565580  0.120280  0.160240  0.076645
    H   H15  0.500320  0.205300  0.222030  0.192467
    H   H16  0.436720  0.183090  0.160080  0.096007
    C   C37  0.152090  0.673540  0.134600  -0.244660
    H   H17  0.196820  0.683310  0.160240  0.097659
    H   H18  0.089080  0.705130  0.222030  0.192091
    H   H19  0.194130  0.620220  0.160080  0.076793
    C   C38  0.847910  0.826460  0.365410  -0.244445
    H   H20  0.806150  0.879720  0.339760  0.077267
    H   H21  0.910910  0.794700  0.277980  0.192197
    H   H22  0.802910  0.816910  0.339920  0.097248
    C   C39  0.847910  0.326460  0.865410  -0.249454
    H   H23  0.806140  0.379720  0.839760  0.081452
    H   H24  0.910910  0.294700  0.777980  0.194181
    H   H25  0.802910  0.316910  0.839920  0.097213
    C   C40  0.152090  0.173540  0.634600  -0.250650
    H   H26  0.196820  0.183310  0.660240  0.097859
    H   H27  0.089080  0.205130  0.722030  0.194252
    H   H28  0.194130  0.120220  0.660080  0.081355
