# Generated by REPEAT Assigner based on pymatgen
data_DB1-Zn2O8N2-ADC_A-BDC_A_No1028
_audit_creation_date              2022-05-24
_audit_creation_method            REPEAT_Assigner
_cell_length_a                    16.735800
_cell_length_b                    17.722000
_cell_length_c                    10.900900
_cell_angle_alpha                 89.851600
_cell_angle_beta                  92.085300
_cell_angle_gamma                 84.915100
_cell_volume                      3218.206417
_symmetry_space_group_name_H-M    P1
_symmetry_Int_Tables_number       1
loop_
    _symmetry_equiv_pos_site_id
    _symmetry_equiv_pos_as_xyz
    1  x,y,z
loop_
    _atom_site_type_symbol
    _atom_site_label
    _atom_site_fract_x
    _atom_site_fract_y
    _atom_site_fract_z
    _atom_type_partial_charge
    O   O1   0.587330  0.387870  0.506060  -0.616453
    O   O2   0.424380  0.393790  0.495800  -0.596386
    C   C1   0.507960  0.352360  0.500900  0.467511
    Zn  Zn1  0.599380  0.496410  0.505880  1.039058
    O   O3   0.418370  0.502980  0.672050  -0.625519
    O   O4   0.581330  0.497180  0.681770  -0.597451
    C   C2   0.499880  0.500040  0.739270  0.589266
    O   O5   0.412660  0.612150  0.494170  -0.615975
    O   O6   0.575620  0.606230  0.503970  -0.586586
    C   C3   0.492040  0.647660  0.499000  0.457839
    Zn  Zn2  0.400620  0.503610  0.494130  1.060296
    O   O7   0.581630  0.496880  0.327960  -0.594948
    O   O8   0.418660  0.502970  0.318240  -0.614177
    C   C4   0.500130  0.499720  0.260740  0.551209
    N   N1   0.283700  0.507850  0.487220  -0.129611
    C   C5   0.242940  0.461090  0.563560  0.103933
    C   C6   0.158960  0.464070  0.558700  -0.289237
    C   C7   0.113260  0.514120  0.476980  0.316433
    C   C8   0.154150  0.560740  0.400850  -0.359717
    C   C9   0.238050  0.557740  0.405760  0.100606
    C   C10  0.023700  0.520350  0.466800  0.062949
    C   C11  0.976290  0.479650  0.533250  0.060083
    C   C12  0.845840  0.439270  0.599190  -0.350496
    C   C13  0.886740  0.485890  0.523060  0.301817
    C   C14  0.841030  0.535940  0.441340  -0.252288
    C   C15  0.757060  0.538920  0.436470  0.013606
    N   N2   0.716290  0.492170  0.512810  -0.071561
    C   C16  0.761940  0.442280  0.594270  0.086641
    H   H1   0.276550  0.422170  0.627120  0.123153
    H   H2   0.131180  0.426900  0.619380  0.200417
    H   H3   0.121010  0.599830  0.337020  0.156626
    H   H4   0.267710  0.594390  0.345920  0.140567
    H   H5   0.878970  0.400180  0.663020  0.153944
    H   H6   0.868820  0.573110  0.380650  0.194575
    H   H7   0.723460  0.577850  0.372910  0.148190
    H   H8   0.732280  0.405630  0.654110  0.136977
    C   C17  0.512570  0.267820  0.501070  0.024670
    C   C18  0.442300  0.229550  0.496790  -0.084351
    C   C19  0.446530  0.150260  0.496940  -0.218893
    C   C20  0.521480  0.106880  0.501390  0.250783
    C   C21  0.591560  0.145270  0.505660  -0.303664
    C   C22  0.587280  0.224490  0.505510  -0.038431
    C   C23  0.530580  0.022300  0.501820  0.063550
    C   C24  0.469390  0.977720  0.498080  0.069007
    C   C25  0.408430  0.854750  0.494240  -0.300132
    C   C26  0.478490  0.893140  0.498510  0.243344
    C   C27  0.553450  0.849770  0.502970  -0.207124
    C   C28  0.557680  0.770470  0.503120  -0.104039
    C   C29  0.487420  0.732200  0.498840  0.036247
    C   C30  0.412710  0.775520  0.494400  -0.039227
    H   H9   0.384000  0.261460  0.493320  0.107726
    H   H10  0.390690  0.124190  0.493540  0.185683
    H   H11  0.650100  0.113800  0.509140  0.139880
    H   H12  0.642350  0.252330  0.508860  0.105457
    H   H13  0.349880  0.886210  0.490760  0.140349
    H   H14  0.609290  0.875830  0.506360  0.182250
    H   H15  0.615990  0.738570  0.506580  0.114756
    H   H16  0.357640  0.747680  0.491040  0.104976
    C   C31  0.499940  0.499960  0.871510  -0.214187
    C   C32  0.500070  0.499800  0.128500  -0.003499
    C   C33  0.428070  0.502480  0.932250  0.405057
    C   C34  0.571940  0.497280  0.067760  -0.151195
    C   C35  0.428130  0.502400  0.059860  -0.198420
    C   C36  0.571880  0.497360  0.940150  -0.042887
    H   H17  0.621810  0.495480  0.114530  0.117241
    H   H18  0.378310  0.504150  0.101150  0.162443
    H   H19  0.621700  0.495610  0.898860  0.112851
    O   O9   0.985810  0.577260  0.373880  -0.498313
    H   H20  0.033550  0.605290  0.328110  0.360213
    O   O10  0.014180  0.422740  0.626180  -0.491103
    H   H21  0.966440  0.394720  0.671940  0.356538
    O   O11  0.615850  0.986260  0.506910  -0.511238
    H   H22  0.658040  0.031210  0.509510  0.351360
    O   O12  0.384120  0.013750  0.492990  -0.511695
    H   H23  0.341930  0.968800  0.490390  0.351456
    O   O13  0.349640  0.505310  0.858690  -0.664243
    H   H24  0.361750  0.504940  0.759250  0.431513
