# Generated by REPEAT Assigner based on pymatgen
data_DB1-Cu2O8N2-irmof20_A-irmof7_A_No339
_audit_creation_date              2022-05-24
_audit_creation_method            REPEAT_Assigner
_cell_length_a                    12.501100
_cell_length_b                    23.044300
_cell_length_c                    10.828700
_cell_angle_alpha                 89.999300
_cell_angle_beta                  89.999100
_cell_angle_gamma                 89.884700
_cell_volume                      3119.515819
_symmetry_space_group_name_H-M    P1
_symmetry_Int_Tables_number       1
loop_
    _symmetry_equiv_pos_site_id
    _symmetry_equiv_pos_as_xyz
    1  x,y,z
loop_
    _atom_site_type_symbol
    _atom_site_label
    _atom_site_fract_x
    _atom_site_fract_y
    _atom_site_fract_z
    _atom_type_partial_charge
    Cu  Cu1  0.499990  0.500000  0.382480  0.710454
    Cu  Cu2  0.499990  0.500000  0.617520  1.107172
    O   O1   0.499980  0.575460  0.390400  -0.465241
    O   O2   0.500320  0.424400  0.390410  -0.524899
    O   O3   0.639380  0.499860  0.390400  -0.473041
    O   O4   0.360920  0.499990  0.390410  -0.414914
    O   O5   0.360610  0.500130  0.609600  -0.550412
    O   O6   0.639070  0.500030  0.609590  -0.496670
    O   O7   0.500160  0.424490  0.609600  -0.529714
    O   O8   0.499630  0.575610  0.609590  -0.542947
    C   C1   0.499790  0.608840  0.500000  0.500296
    C   C2   0.500200  0.391170  0.500010  0.644534
    C   C3   0.700620  0.499960  0.500000  0.608005
    C   C4   0.299370  0.500050  0.500010  0.513915
    Cu  Cu3  0.499360  0.957520  0.617560  0.762597
    Cu  Cu4  0.500120  0.957520  0.382520  1.183332
    O   O9   0.499460  0.882070  0.609640  -0.485622
    O   O10  0.499630  0.033130  0.609630  -0.515528
    O   O11  0.638770  0.957410  0.610230  -0.499364
    O   O12  0.360320  0.957790  0.609040  -0.414490
    O   O13  0.360710  0.957660  0.389850  -0.580307
    O   O14  0.639160  0.957230  0.391030  -0.496046
    O   O15  0.500170  0.033040  0.390440  -0.554558
    O   O16  0.499810  0.881910  0.390440  -0.454336
    C   C5   0.499660  0.848690  0.500040  0.398264
    C   C6   0.499830  0.066360  0.500030  0.506682
    C   C7   0.700360  0.957200  0.500890  0.656509
    C   C8   0.299120  0.957850  0.499180  0.535544
    C   C9   0.439920  0.532580  0.872250  0.524607
    S   S1   0.586690  0.453000  0.866540  0.151465
    C   C10  0.560070  0.467430  0.127750  0.016125
    H   H1   0.610320  0.440180  0.153620  0.164958
    S   S2   0.413300  0.547010  0.133460  0.140357
    N   N1   0.499990  0.500000  0.792180  -0.360557
    N   N2   0.499990  0.500000  0.207820  -0.118626
    C   C11  0.538700  0.479020  0.000000  -0.078934
    C   C12  0.461290  0.520990  0.000000  -0.108077
    C   C13  0.889340  0.499910  0.402050  0.528303
    S   S3   0.884380  0.500100  0.641360  0.047783
    C   C14  0.110650  0.500100  0.597960  -0.129561
    H   H2   0.133060  0.500170  0.679900  0.163748
    S   S4   0.115600  0.499910  0.358640  0.031000
    C   C15  0.819980  0.499980  0.500000  -0.387394
    C   C16  0.180010  0.500030  0.500000  -0.113899
    C   C17  0.999990  0.500050  0.563120  0.057860
    C   C18  -0.000000  0.499950  0.436880  -0.106278
    C   C19  0.499690  0.785360  0.500030  -0.032660
    C   C20  0.569080  0.755600  0.420230  0.049298
    C   C21  0.430330  0.755720  0.579820  -0.183458
    C   C22  0.636830  0.786920  0.342290  -0.131378
    C   C23  0.707030  0.758950  0.261560  -0.019700
    H   H3   0.634980  0.827220  0.344400  0.128685
    C   C24  0.499750  0.672160  0.500010  -0.225099
    C   C25  0.430360  0.701920  0.579810  -0.063335
    C   C26  0.569110  0.701800  0.420220  0.283982
    C   C27  0.636900  0.670360  0.342270  -0.364212
    C   C28  0.707060  0.698210  0.261550  0.118794
    H   H4   0.635090  0.630070  0.344370  0.238504
    H   H5   0.385120  0.681320  0.631850  0.121131
    H   H6   0.385070  0.776410  0.631870  0.146049
    C   C29  0.500010  0.288790  0.597970  0.539861
    S   S5   0.500190  0.291470  0.358650  0.058560
    C   C30  0.500020  0.168730  0.402070  -0.121912
    H   H7   0.500070  0.156570  0.320130  0.156405
    S   S6   0.499840  0.166050  0.641390  0.064974
    C   C31  0.500130  0.326420  0.500010  -0.403382
    C   C32  0.499900  0.131110  0.500030  -0.107163
    C   C33  0.500060  0.228760  0.436900  0.043526
    C   C34  0.499970  0.228760  0.563140  -0.116525
    C   C35  0.440900  0.925060  0.127530  0.569705
    S   S7   0.587560  0.004370  0.133870  0.118748
    C   C36  0.561800  0.989980  0.872550  0.038447
    H   H8   0.612110  0.017140  0.846890  0.158232
    S   S8   0.415130  0.910670  0.866210  0.163163
    N   N3   0.500680  0.957520  0.207860  -0.405457
    N   N4   0.502020  0.957520  0.792230  -0.157182
    C   C37  0.540030  0.978440  0.000210  -0.040081
    C   C38  0.462660  0.936600  0.999880  -0.172320
    C   C39  0.888770  0.956890  0.599640  0.544234
    S   S9   0.884580  0.956710  0.360310  0.078769
    C   C40  0.110700  0.956290  0.404680  -0.118596
    H   H9   0.133380  0.956180  0.322830  0.166991
    S   S10  0.114890  0.956470  0.644010  0.025042
    C   C41  0.819720  0.956950  0.501400  -0.435482
    C   C42  0.179750  0.956230  0.502920  -0.127901
    C   C43  0.999940  0.956540  0.439040  0.013764
    C   C44  0.999540  0.956640  0.565280  -0.067741
    H   H10  0.279350  0.579420  0.876710  0.390945
    H   H11  0.377440  0.606670  0.752970  0.381955
    N   N5   0.358370  0.576790  0.830270  -0.906396
    H   H12  0.893080  0.528220  0.200560  0.457182
    H   H13  0.786140  0.471290  0.239830  0.354582
    N   N6   0.852980  0.499800  0.269070  -0.984906
    H   H14  0.447370  0.286780  0.799300  0.380642
    H   H15  0.552440  0.344770  0.760330  0.346771
    N   N7   0.499930  0.308520  0.730940  -0.924270
    H   H16  0.280400  0.878510  0.122390  0.384456
    H   H17  0.378120  0.851090  0.246550  0.339184
    N   N8   0.359260  0.880990  0.169170  -0.885602
    H   H18  0.891900  0.928570  0.801140  0.442164
    H   H19  0.785020  0.985700  0.761420  0.372826
    N   N9   0.851980  0.957070  0.732460  -0.998054
    Br  Br1  0.807580  0.805700  0.145890  -0.099580
    Br  Br2  0.807660  0.651280  0.145870  -0.137272
