# Generated by REPEAT Assigner based on pymatgen
data_DB1-Cu2O8N2-AZO_A-BDC_A_No177
_audit_creation_date              2022-05-24
_audit_creation_method            REPEAT_Assigner
_cell_length_a                    15.606300
_cell_length_b                    17.276500
_cell_length_c                    10.700300
_cell_angle_alpha                 89.922400
_cell_angle_beta                  87.461000
_cell_angle_gamma                 95.773200
_cell_volume                      2867.538702
_symmetry_space_group_name_H-M    P1
_symmetry_Int_Tables_number       1
loop_
    _symmetry_equiv_pos_site_id
    _symmetry_equiv_pos_as_xyz
    1  x,y,z
loop_
    _atom_site_type_symbol
    _atom_site_label
    _atom_site_fract_x
    _atom_site_fract_y
    _atom_site_fract_z
    _atom_type_partial_charge
    Cu  Cu1  0.418090  0.496710  0.505300  0.971229
    Cu  Cu2  0.581910  0.503280  0.494710  1.021334
    O   O1   0.423610  0.496990  0.667440  -0.559128
    O   O2   0.423630  0.497100  0.342120  -0.600285
    O   O3   0.429960  0.598210  0.504230  -0.561524
    O   O4   0.417280  0.395890  0.505330  -0.422449
    O   O5   0.570040  0.401780  0.495740  -0.575791
    O   O6   0.582720  0.604100  0.494730  -0.416236
    O   O7   0.576390  0.503110  0.332440  -0.567046
    O   O8   0.576370  0.502860  0.657900  -0.640051
    C   C1   0.499990  0.499940  0.734390  0.678524
    C   C2   0.500010  0.500050  0.265620  0.623174
    C   C3   0.509140  0.645760  0.499320  0.508563
    C   C4   0.490860  0.354230  0.500700  0.522085
    N   N1   0.296350  0.491830  0.513170  -0.189245
    C   C5   0.253060  0.539790  0.435850  -0.050328
    C   C6   0.162830  0.536040  0.441890  -0.202786
    C   C7   0.114060  0.484340  0.525250  0.463943
    C   C8   0.156700  0.436580  0.602250  -0.347659
    C   C9   0.246890  0.440130  0.596520  0.339412
    N   N2   0.021550  0.479160  0.533600  -0.244589
    N   N3   0.978450  0.520830  0.466420  -0.245712
    C   C10  0.843290  0.563410  0.397770  -0.331791
    C   C11  0.885940  0.515660  0.474760  0.457897
    C   C12  0.837170  0.463950  0.558120  -0.194706
    C   C13  0.746940  0.460200  0.564160  -0.051216
    N   N4   0.703650  0.508160  0.486850  -0.189491
    C   C14  0.753110  0.559860  0.403500  0.310493
    H   H1   0.289450  0.580040  0.370960  0.186841
    H   H2   0.130790  0.573290  0.381850  0.085311
    H   H3   0.119700  0.396570  0.666750  0.091769
    H   H4   0.880300  0.603420  0.333270  0.089445
    H   H5   0.869210  0.426700  0.618160  0.082575
    H   H6   0.710550  0.419950  0.629060  0.180738
    C   C15  0.485420  0.267480  0.501010  -0.126611
    C   C16  0.560760  0.228690  0.496310  -0.140559
    C   C17  0.555440  0.147210  0.496610  -0.151722
    C   C18  0.474790  0.102870  0.501610  0.479782
    C   C19  0.399760  0.141080  0.506290  -0.375881
    C   C20  0.404780  0.222510  0.506010  0.238428
    N   N5   0.467250  0.019320  0.502050  -0.263857
    N   N6   0.532750  0.980670  0.497970  -0.263759
    C   C21  0.600240  0.858910  0.493730  -0.374420
    C   C22  0.525210  0.897120  0.498410  0.479313
    C   C23  0.444560  0.852780  0.503410  -0.152770
    C   C24  0.439240  0.771300  0.503710  -0.137819
    C   C25  0.514580  0.732510  0.499010  -0.123819
    C   C26  0.595220  0.777480  0.494010  0.235994
    H   H7   0.623550  0.261780  0.492420  0.155955
    H   H8   0.613940  0.118500  0.492960  0.081382
    H   H9   0.337360  0.107430  0.510160  0.128337
    H   H10  0.662640  0.892560  0.489860  0.127402
    H   H11  0.386060  0.881490  0.507060  0.081990
    H   H12  0.376450  0.738210  0.507610  0.155109
    C   C27  0.500000  0.499970  0.869110  -0.241583
    C   C28  0.500010  0.500020  0.130910  -0.052851
    C   C29  0.577190  0.502950  0.930010  0.118082
    C   C30  0.422810  0.497040  0.070000  -0.236046
    C   C31  0.577190  0.502970  0.060010  -0.016912
    C   C32  0.422810  0.497010  0.940010  0.147487
    H   H13  0.369310  0.495000  0.118320  0.160626
    H   H14  0.630710  0.505040  0.101390  0.041616
    H   H15  0.369300  0.494950  0.898620  0.011301
    Cl  Cl1  0.298170  0.379160  0.694810  -0.030788
    Cl  Cl2  0.701820  0.620830  0.305210  -0.017679
    Cl  Cl3  0.309020  0.268450  0.511980  -0.108562
    Cl  Cl4  0.690980  0.731540  0.488040  -0.108779
    C   C33  0.663720  0.506260  0.851880  -0.140799
    H   H16  0.693100  0.461880  0.871640  0.041518
    H   H17  0.652440  0.505920  0.764400  0.137581
    H   H18  0.699120  0.553010  0.871280  0.020016
