# Generated by REPEAT Assigner based on pymatgen
data_DB1-Cu2O8N2-DPAC_A-irmof10_A_No455
_audit_creation_date              2022-05-24
_audit_creation_method            REPEAT_Assigner
_cell_length_a                    32.317900
_cell_length_b                    17.372200
_cell_length_c                    15.850000
_cell_angle_alpha                 89.994400
_cell_angle_beta                  89.992700
_cell_angle_gamma                 89.869600
_cell_volume                      8898.690244
_symmetry_space_group_name_H-M    P1
_symmetry_Int_Tables_number       1
loop_
    _symmetry_equiv_pos_site_id
    _symmetry_equiv_pos_as_xyz
    1  x,y,z
loop_
    _atom_site_type_symbol
    _atom_site_label
    _atom_site_fract_x
    _atom_site_fract_y
    _atom_site_fract_z
    _atom_type_partial_charge
    Cu  Cu1   0.500010  0.500000  0.419710  1.103992
    Cu  Cu2   0.500000  0.499990  0.580290  1.141918
    O   O1    0.553810  0.499980  0.425120  -0.562096
    O   O2    0.446100  0.500240  0.425130  -0.568201
    O   O3    0.499890  0.600300  0.425120  -0.598171
    O   O4    0.500010  0.399920  0.425130  -0.632708
    O   O5    0.500100  0.399690  0.574880  -0.596081
    O   O6    0.500010  0.600070  0.574870  -0.597194
    O   O7    0.446150  0.500120  0.574880  -0.630445
    O   O8    0.553910  0.499720  0.574870  -0.572963
    C   C1    0.577610  0.499830  0.500000  0.548401
    C   C2    0.422400  0.500160  0.500010  0.603274
    C   C3    0.499960  0.644360  0.499990  0.599632
    C   C4    0.500050  0.355630  0.500010  0.634598
    Cu  Cu3   0.962460  0.499380  0.580310  1.086874
    Cu  Cu4   0.962470  0.499930  0.419730  1.207387
    O   O9    0.908660  0.499460  0.574900  -0.565951
    O   O10   0.016370  0.499560  0.574890  -0.573357
    O   O11   0.962370  0.599700  0.575290  -0.596433
    O   O12   0.962660  0.399320  0.574500  -0.633319
    O   O13   0.962570  0.399600  0.424740  -0.619362
    O   O14   0.962250  0.599980  0.425540  -0.613351
    O   O15   0.016310  0.499950  0.425140  -0.647493
    O   O16   0.908560  0.499720  0.425150  -0.590430
    C   C5    0.884860  0.499610  0.500020  0.555797
    C   C6    0.040070  0.499700  0.500010  0.605359
    C   C7    0.962220  0.644020  0.500590  0.604584
    C   C8    0.962710  0.355280  0.499440  0.650257
    N   N1    0.500010  0.500000  0.300380  -0.233760
    C   C9    0.473440  0.549470  0.253920  0.013816
    C   C10   0.473360  0.549620  0.165080  -0.300575
    C   C11   0.500000  0.500000  0.120060  0.046222
    C   C12   0.526640  0.450370  0.165070  0.419649
    C   C13   0.526570  0.450520  0.253910  0.020028
    C   C14   0.500000  0.500000  0.037720  -0.176442
    C   C15   0.499990  0.500000  0.962280  -0.194213
    C   C16   0.499990  0.499990  0.879950  0.031740
    C   C17   0.473340  0.549590  0.834930  0.475007
    C   C18   0.473420  0.549450  0.746080  -0.094677
    N   N2    0.499990  0.499990  0.699620  -0.165667
    C   C19   0.526570  0.450530  0.746080  -0.020101
    C   C20   0.526640  0.450390  0.834930  -0.272979
    H   H1    0.453750  0.586150  0.284760  0.114076
    H   H2    0.453700  0.586230  0.133910  0.104333
    H   H3    0.546260  0.413850  0.284740  0.137879
    H   H4    0.453720  0.586110  0.715250  0.165566
    H   H5    0.546260  0.413860  0.715250  0.121905
    H   H6    0.546310  0.413790  0.866100  0.103237
    C   C21   0.500040  0.274060  0.500010  -0.136589
    C   C22   0.499980  0.231680  0.423450  -0.087435
    C   C23   0.499970  0.150620  0.423220  -0.262598
    C   C24   0.500010  0.109530  0.499990  0.026637
    C   C25   0.500060  0.150590  0.576780  0.531558
    C   C26   0.500080  0.231650  0.576560  -0.241216
    C   C27   0.500000  0.034410  0.499990  -0.197186
    C   C28   0.499990  0.965580  0.499980  -0.204931
    C   C29   0.499980  0.890460  0.499980  0.021243
    C   C30   0.499910  0.849390  0.423200  0.538861
    C   C31   0.499900  0.768330  0.423430  -0.259174
    C   C32   0.499960  0.725930  0.499990  -0.099267
    C   C33   0.500030  0.768320  0.576540  -0.131993
    C   C34   0.500040  0.849380  0.576770  -0.241072
    H   H7    0.499950  0.259810  0.366700  0.099812
    H   H8    0.499930  0.122190  0.366560  0.103372
    H   H9    0.500120  0.259770  0.633310  0.166942
    H   H10   0.499860  0.740210  0.366680  0.174177
    H   H11   0.500070  0.740190  0.633290  0.120810
    H   H12   0.500080  0.877820  0.633420  0.099485
    C   C35   0.622210  0.499800  0.500000  -0.211323
    C   C36   0.840260  0.499640  0.500020  -0.204499
    C   C37   0.644040  0.499910  0.424330  0.365134
    C   C38   0.687430  0.499880  0.423630  -0.307508
    C   C39   0.818430  0.499520  0.575690  0.356995
    C   C40   0.775040  0.499560  0.576390  -0.301700
    C   C41   0.818440  0.499780  0.424340  -0.013923
    C   C42   0.775050  0.499820  0.423640  -0.269122
    C   C43   0.644020  0.499650  0.575670  -0.009822
    C   C44   0.687420  0.499620  0.576380  -0.272135
    C   C45   0.709370  0.499740  0.500010  0.130798
    C   C46   0.753100  0.499700  0.500010  0.124222
    H   H13   0.702110  0.499960  0.370960  0.200380
    H   H14   0.760360  0.499480  0.629060  0.200256
    H   H15   0.833300  0.499860  0.371890  0.112470
    H   H16   0.760380  0.499920  0.370970  0.131771
    H   H17   0.629170  0.499580  0.628130  0.111579
    H   H18   0.702080  0.499520  0.629050  0.131571
    C   C47   0.083910  0.499760  0.500010  -0.106348
    C   C48   0.106700  0.499710  0.576570  -0.128830
    C   C49   0.150270  0.499760  0.576800  -0.245552
    C   C50   0.172350  0.499870  0.500020  0.009344
    C   C51   0.150280  0.499930  0.423240  0.529764
    C   C52   0.106710  0.499870  0.423460  -0.244107
    C   C53   0.212730  0.499920  0.500020  -0.199316
    C   C54   0.249730  0.499970  0.500030  -0.186899
    C   C55   0.290110  0.500020  0.500020  0.007392
    C   C56   0.312190  0.499980  0.576800  0.526170
    C   C57   0.355760  0.500030  0.576570  -0.239731
    C   C58   0.378550  0.500110  0.500010  -0.112291
    C   C59   0.355770  0.500150  0.423460  -0.124316
    C   C60   0.312190  0.500100  0.423240  -0.248646
    H   H19   0.091570  0.499620  0.633320  0.109379
    H   H20   0.165550  0.499720  0.633450  0.090745
    H   H21   0.091590  0.499920  0.366710  0.185277
    H   H22   0.370880  0.500000  0.633320  0.183108
    H   H23   0.370890  0.500210  0.366710  0.108220
    H   H24   0.296910  0.500130  0.366590  0.090825
    N   N3    0.962450  0.502410  0.699640  -0.217251
    C   C61   0.988920  0.551680  0.746290  0.009460
    C   C62   0.989000  0.551520  0.835140  -0.301113
    C   C63   0.962460  0.501780  0.879970  0.045139
    C   C64   0.935920  0.452360  0.834760  0.424264
    C   C65   0.935990  0.452810  0.745920  0.002921
    C   C66   0.962470  0.501500  0.962300  -0.172245
    C   C67   0.962470  0.501250  0.037740  -0.199672
    C   C68   0.962470  0.500960  0.120080  0.039779
    C   C69   0.989020  0.550360  0.165290  0.473499
    C   C70   0.988940  0.549910  0.254130  -0.097280
    N   N4    0.962470  0.500330  0.300400  -0.169425
    C   C71   0.936000  0.451070  0.253740  -0.025325
    C   C72   0.935920  0.451230  0.164900  -0.277129
    H   H25   0.008540  0.588440  0.715600  0.116449
    H   H26   0.008590  0.588000  0.866450  0.104161
    H   H27   0.916370  0.416270  0.714950  0.146290
    H   H28   0.008570  0.586440  0.285110  0.167615
    H   H29   0.916370  0.414330  0.284430  0.126258
    H   H30   0.916330  0.414770  0.133580  0.104643
    C   C73   0.960870  0.273710  0.503040  -0.146646
    C   C74   0.961010  0.231070  0.579430  -0.079702
    C   C75   0.961190  0.150010  0.579350  -0.266308
    C   C76   0.961230  0.109190  0.502410  0.030766
    C   C77   0.961090  0.150510  0.425790  0.527333
    C   C78   0.960910  0.231570  0.426330  -0.238603
    C   C79   0.961390  0.034060  0.502120  -0.198930
    C   C80   0.961540  0.965240  0.501860  -0.203331
    C   C81   0.961700  0.890110  0.501560  0.020503
    C   C82   0.961850  0.848780  0.578180  0.540076
    C   C83   0.962020  0.767720  0.577640  -0.260570
    C   C84   0.962050  0.725590  0.500920  -0.098959
    C   C85   0.961900  0.768240  0.424530  -0.131843
    C   C86   0.961730  0.849300  0.424620  -0.242538
    H   H31   0.960980  0.259010  0.636290  0.097724
    H   H32   0.961280  0.121380  0.635890  0.105034
    H   H33   0.960810  0.259890  0.369680  0.167678
    H   H34   0.962130  0.739400  0.634280  0.174848
    H   H35   0.961910  0.740300  0.367670  0.121361
    H   H36   0.961620  0.877930  0.368080  0.100455
    O   O17   0.551540  0.404010  0.125580  -0.857818
    Li  Li1   0.560710  0.386910  0.020920  0.863760
    O   O18   0.448440  0.595950  0.874400  -0.875981
    Li  Li2   0.439260  0.613030  0.979070  0.859375
    O   O19   0.500100  0.114560  0.648520  -0.895354
    Li  Li3   0.500100  0.019070  0.674960  0.863787
    O   O20   0.499860  0.885420  0.351460  -0.895036
    Li  Li4   0.499850  0.980910  0.325010  0.863526
    O   O21   0.169650  0.500030  0.351490  -0.905182
    Li  Li5   0.220980  0.500130  0.325050  0.868892
    O   O22   0.292820  0.499910  0.648550  -0.902742
    Li  Li6   0.241490  0.499830  0.675000  0.867754
    O   O23   0.911120  0.405890  0.874060  -0.858091
    Li  Li7   0.901990  0.388450  0.978660  0.863209
    O   O24   0.013830  0.596820  0.125990  -0.876713
    Li  Li8   0.022980  0.614250  0.021400  0.859357
    O   O25   0.961120  0.114730  0.353900  -0.893014
    Li  Li9   0.961310  0.019320  0.327090  0.863091
    O   O26   0.961830  0.884560  0.650070  -0.895499
    Li  Li10  0.961650  0.979960  0.676890  0.863795
    O   O27   0.620690  0.500070  0.341820  -0.600611
    H   H37   0.586920  0.500080  0.354610  0.379837
    O   O28   0.841780  0.499370  0.658200  -0.599868
    H   H38   0.875550  0.499360  0.645400  0.379811
