data_DB1-Cu2O8N2-DPAC_A-irmof14_A_No507_repeat
_audit_creation_date              2024-02-23
_audit_creation_method            'Materials Studio'
_symmetry_space_group_name_H-M    'P1'
_symmetry_Int_Tables_number       1
_symmetry_cell_setting            triclinic
loop_
_symmetry_equiv_pos_as_xyz
  x,y,z
_cell_length_a                    32.2693
_cell_length_b                    17.3722
_cell_length_c                    15.8500
_cell_angle_alpha                 89.9944
_cell_angle_beta                  89.9927
_cell_angle_gamma                 89.8695
loop_
_atom_site_label
_atom_site_type_symbol
_atom_site_fract_x
_atom_site_fract_y
_atom_site_fract_z
_atom_site_U_iso_or_equiv
_atom_site_adp_type
_atom_site_occupancy
Cu1    Cu    0.50001   0.50000   0.41971   0.00000  Uiso   1.00
Cu2    Cu    0.50000   0.49999   0.58029   0.00000  Uiso   1.00
O1     O     0.55389   0.49998   0.42512   0.00000  Uiso   1.00
O2     O     0.44601   0.50024   0.42513   0.00000  Uiso   1.00
O3     O     0.49989   0.60030   0.42512   0.00000  Uiso   1.00
O4     O     0.50001   0.39992   0.42513   0.00000  Uiso   1.00
O5     O     0.50010   0.39969   0.57488   0.00000  Uiso   1.00
O6     O     0.50001   0.60007   0.57487   0.00000  Uiso   1.00
O7     O     0.44607   0.50012   0.57488   0.00000  Uiso   1.00
O8     O     0.55399   0.49972   0.57487   0.00000  Uiso   1.00
C1     C     0.57772   0.49983   0.50000   0.00000  Uiso   1.00
C2     C     0.42228   0.50016   0.50001   0.00000  Uiso   1.00
C3     C     0.49995   0.64436   0.49999   0.00000  Uiso   1.00
C4     C     0.50005   0.35563   0.50001   0.00000  Uiso   1.00
Cu3    Cu    0.96165   0.49938   0.58031   0.00000  Uiso   1.00
Cu4    Cu    0.96165   0.49993   0.41973   0.00000  Uiso   1.00
O9     O     0.90777   0.49946   0.57490   0.00000  Uiso   1.00
O10    O     0.01564   0.49956   0.57489   0.00000  Uiso   1.00
O11    O     0.96156   0.59970   0.57529   0.00000  Uiso   1.00
O12    O     0.96185   0.39932   0.57449   0.00000  Uiso   1.00
O13    O     0.96176   0.39961   0.42474   0.00000  Uiso   1.00
O14    O     0.96144   0.59999   0.42554   0.00000  Uiso   1.00
O15    O     0.01558   0.49995   0.42514   0.00000  Uiso   1.00
O16    O     0.90766   0.49972   0.42515   0.00000  Uiso   1.00
C5     C     0.88393   0.49961   0.50002   0.00000  Uiso   1.00
C6     C     0.03937   0.49970   0.50001   0.00000  Uiso   1.00
C7     C     0.96141   0.64402   0.50059   0.00000  Uiso   1.00
C8     C     0.96189   0.35528   0.49944   0.00000  Uiso   1.00
N1     N     0.50001   0.50000   0.30038   0.00000  Uiso   1.00
C9     C     0.47340   0.54947   0.25392   0.00000  Uiso   1.00
C10    C     0.47332   0.54962   0.16508   0.00000  Uiso   1.00
C11    C     0.50000   0.50000   0.12006   0.00000  Uiso   1.00
C12    C     0.52668   0.45038   0.16507   0.00000  Uiso   1.00
C13    C     0.52661   0.45052   0.25391   0.00000  Uiso   1.00
C14    C     0.49999   0.50000   0.03772   0.00000  Uiso   1.00
C15    C     0.49999   0.50000   0.96228   0.00000  Uiso   1.00
C16    C     0.49999   0.49999   0.87995   0.00000  Uiso   1.00
C17    C     0.47330   0.54959   0.83493   0.00000  Uiso   1.00
C18    C     0.47338   0.54945   0.74608   0.00000  Uiso   1.00
N2     N     0.49999   0.49999   0.69962   0.00000  Uiso   1.00
C19    C     0.52660   0.45053   0.74608   0.00000  Uiso   1.00
C20    C     0.52668   0.45039   0.83493   0.00000  Uiso   1.00
H1     H     0.45368   0.58615   0.28476   0.00000  Uiso   1.00
H2     H     0.45363   0.58623   0.13391   0.00000  Uiso   1.00
H3     H     0.54633   0.41385   0.28474   0.00000  Uiso   1.00
H4     H     0.45365   0.58611   0.71525   0.00000  Uiso   1.00
H5     H     0.54633   0.41387   0.71525   0.00000  Uiso   1.00
H6     H     0.54638   0.41379   0.86610   0.00000  Uiso   1.00
C21    C     0.50003   0.27406   0.50001   0.00000  Uiso   1.00
C22    C     0.49998   0.23168   0.42345   0.00000  Uiso   1.00
C23    C     0.49997   0.15062   0.42322   0.00000  Uiso   1.00
C24    C     0.50001   0.10953   0.49999   0.00000  Uiso   1.00
C25    C     0.50006   0.15059   0.57678   0.00000  Uiso   1.00
C26    C     0.50007   0.23165   0.57656   0.00000  Uiso   1.00
C27    C     0.50000   0.03441   0.49999   0.00000  Uiso   1.00
C28    C     0.49999   0.96558   0.49998   0.00000  Uiso   1.00
C29    C     0.49998   0.89046   0.49998   0.00000  Uiso   1.00
C30    C     0.49991   0.84939   0.42320   0.00000  Uiso   1.00
C31    C     0.49990   0.76833   0.42343   0.00000  Uiso   1.00
C32    C     0.49996   0.72593   0.49999   0.00000  Uiso   1.00
C33    C     0.50002   0.76832   0.57654   0.00000  Uiso   1.00
C34    C     0.50003   0.84938   0.57677   0.00000  Uiso   1.00
H7     H     0.49995   0.25981   0.36670   0.00000  Uiso   1.00
H8     H     0.49992   0.12219   0.36656   0.00000  Uiso   1.00
H9     H     0.50012   0.25977   0.63331   0.00000  Uiso   1.00
H10    H     0.49985   0.74021   0.36668   0.00000  Uiso   1.00
H11    H     0.50007   0.74019   0.63329   0.00000  Uiso   1.00
H12    H     0.50008   0.87782   0.63342   0.00000  Uiso   1.00
C35    C     0.64186   0.49966   0.57516   0.00000  Uiso   1.00
C36    C     0.68522   0.49963   0.57148   0.00000  Uiso   1.00
C37    C     0.70919   0.49949   0.64480   0.00000  Uiso   1.00
H13    H     0.62832   0.49958   0.62700   0.00000  Uiso   1.00
H14    H     0.69554   0.49941   0.69664   0.00000  Uiso   1.00
C38    C     0.64187   0.49991   0.42484   0.00000  Uiso   1.00
C39    C     0.68523   0.49988   0.42853   0.00000  Uiso   1.00
C40    C     0.70921   0.49999   0.35521   0.00000  Uiso   1.00
H15    H     0.62834   0.50001   0.37300   0.00000  Uiso   1.00
C41    C     0.81980   0.49978   0.42486   0.00000  Uiso   1.00
C42    C     0.77643   0.49981   0.42854   0.00000  Uiso   1.00
C43    C     0.75247   0.49995   0.35522   0.00000  Uiso   1.00
H16    H     0.83333   0.49986   0.37302   0.00000  Uiso   1.00
H17    H     0.76611   0.50003   0.30338   0.00000  Uiso   1.00
C44    C     0.81978   0.49952   0.57517   0.00000  Uiso   1.00
C45    C     0.77642   0.49956   0.57149   0.00000  Uiso   1.00
C46    C     0.75244   0.49946   0.64480   0.00000  Uiso   1.00
H18    H     0.83331   0.49943   0.62702   0.00000  Uiso   1.00
C47    C     0.61917   0.49980   0.50000   0.00000  Uiso   1.00
C48    C     0.71037   0.49974   0.50001   0.00000  Uiso   1.00
C49    C     0.84248   0.49964   0.50002   0.00000  Uiso   1.00
C50    C     0.75128   0.49970   0.50001   0.00000  Uiso   1.00
C51    C     0.08329   0.49976   0.50001   0.00000  Uiso   1.00
C52    C     0.10610   0.49971   0.57657   0.00000  Uiso   1.00
C53    C     0.14974   0.49976   0.57680   0.00000  Uiso   1.00
C54    C     0.17186   0.49987   0.50002   0.00000  Uiso   1.00
C55    C     0.14975   0.49993   0.42324   0.00000  Uiso   1.00
C56    C     0.10611   0.49987   0.42346   0.00000  Uiso   1.00
C57    C     0.21230   0.49992   0.50002   0.00000  Uiso   1.00
C58    C     0.24935   0.49997   0.50003   0.00000  Uiso   1.00
C59    C     0.28980   0.50002   0.50002   0.00000  Uiso   1.00
C60    C     0.31190   0.49998   0.57680   0.00000  Uiso   1.00
C61    C     0.35554   0.50003   0.57657   0.00000  Uiso   1.00
C62    C     0.37837   0.50011   0.50001   0.00000  Uiso   1.00
C63    C     0.35555   0.50015   0.42346   0.00000  Uiso   1.00
C64    C     0.31191   0.50010   0.42324   0.00000  Uiso   1.00
H19    H     0.09095   0.49962   0.63332   0.00000  Uiso   1.00
H20    H     0.16505   0.49972   0.63345   0.00000  Uiso   1.00
H21    H     0.09098   0.49992   0.36671   0.00000  Uiso   1.00
H22    H     0.37068   0.50000   0.63332   0.00000  Uiso   1.00
H23    H     0.37069   0.50021   0.36671   0.00000  Uiso   1.00
H24    H     0.29660   0.50013   0.36659   0.00000  Uiso   1.00
N3     N     0.96164   0.50241   0.69964   0.00000  Uiso   1.00
C65    C     0.98815   0.55168   0.74629   0.00000  Uiso   1.00
C66    C     0.98823   0.55152   0.83514   0.00000  Uiso   1.00
C67    C     0.96165   0.50178   0.87997   0.00000  Uiso   1.00
C68    C     0.93507   0.45236   0.83476   0.00000  Uiso   1.00
C69    C     0.93514   0.45281   0.74592   0.00000  Uiso   1.00
C70    C     0.96166   0.50150   0.96230   0.00000  Uiso   1.00
C71    C     0.96166   0.50125   0.03774   0.00000  Uiso   1.00
C72    C     0.96166   0.50096   0.12008   0.00000  Uiso   1.00
C73    C     0.98825   0.55036   0.16529   0.00000  Uiso   1.00
C74    C     0.98817   0.54991   0.25413   0.00000  Uiso   1.00
N4     N     0.96166   0.50033   0.30040   0.00000  Uiso   1.00
C75    C     0.93515   0.45107   0.25374   0.00000  Uiso   1.00
C76    C     0.93507   0.45124   0.16490   0.00000  Uiso   1.00
H25    H     0.00779   0.58844   0.71560   0.00000  Uiso   1.00
H26    H     0.00785   0.58800   0.86645   0.00000  Uiso   1.00
H27    H     0.91549   0.41627   0.71495   0.00000  Uiso   1.00
H28    H     0.00783   0.58644   0.28511   0.00000  Uiso   1.00
H29    H     0.91549   0.41433   0.28443   0.00000  Uiso   1.00
H30    H     0.91545   0.41477   0.13358   0.00000  Uiso   1.00
C77    C     0.96005   0.27371   0.50304   0.00000  Uiso   1.00
C78    C     0.96019   0.23107   0.57943   0.00000  Uiso   1.00
C79    C     0.96037   0.15001   0.57935   0.00000  Uiso   1.00
C80    C     0.96041   0.10919   0.50241   0.00000  Uiso   1.00
C81    C     0.96027   0.15051   0.42579   0.00000  Uiso   1.00
C82    C     0.96010   0.23157   0.42633   0.00000  Uiso   1.00
C83    C     0.96057   0.03407   0.50212   0.00000  Uiso   1.00
C84    C     0.96072   0.96524   0.50186   0.00000  Uiso   1.00
C85    C     0.96088   0.89012   0.50156   0.00000  Uiso   1.00
C86    C     0.96103   0.84878   0.57818   0.00000  Uiso   1.00
C87    C     0.96121   0.76772   0.57764   0.00000  Uiso   1.00
C88    C     0.96123   0.72559   0.50092   0.00000  Uiso   1.00
C89    C     0.96108   0.76824   0.42453   0.00000  Uiso   1.00
C90    C     0.96091   0.84930   0.42462   0.00000  Uiso   1.00
H31    H     0.96017   0.25901   0.63629   0.00000  Uiso   1.00
H32    H     0.96047   0.12138   0.63589   0.00000  Uiso   1.00
H33    H     0.96000   0.25989   0.36968   0.00000  Uiso   1.00
H34    H     0.96131   0.73940   0.63428   0.00000  Uiso   1.00
H35    H     0.96110   0.74030   0.36767   0.00000  Uiso   1.00
H36    H     0.96081   0.87793   0.36808   0.00000  Uiso   1.00
O17    O     0.55161   0.40401   0.12558   0.00000  Uiso   1.00
Li1    Li    0.56080   0.38691   0.02092   0.00000  Uiso   1.00
O18    O     0.44836   0.59595   0.87440   0.00000  Uiso   1.00
Li2    Li    0.43917   0.61303   0.97907   0.00000  Uiso   1.00
O19    O     0.50010   0.11456   0.64852   0.00000  Uiso   1.00
Li3    Li    0.50010   0.01907   0.67496   0.00000  Uiso   1.00
O20    O     0.49986   0.88542   0.35146   0.00000  Uiso   1.00
Li4    Li    0.49984   0.98091   0.32501   0.00000  Uiso   1.00
O21    O     0.16915   0.50004   0.35149   0.00000  Uiso   1.00
Li5    Li    0.22056   0.50013   0.32505   0.00000  Uiso   1.00
O22    O     0.29251   0.49991   0.64855   0.00000  Uiso   1.00
Li6    Li    0.24110   0.49983   0.67500   0.00000  Uiso   1.00
O23    O     0.91023   0.40589   0.87406   0.00000  Uiso   1.00
Li7    Li    0.90108   0.38845   0.97866   0.00000  Uiso   1.00
O24    O     0.01310   0.59682   0.12599   0.00000  Uiso   1.00
Li8    Li    0.02226   0.61425   0.02140   0.00000  Uiso   1.00
O25    O     0.96031   0.11473   0.35390   0.00000  Uiso   1.00
Li9    Li    0.96050   0.01932   0.32709   0.00000  Uiso   1.00
O26    O     0.96102   0.88456   0.65007   0.00000  Uiso   1.00
Li10   Li    0.96083   0.97996   0.67689   0.00000  Uiso   1.00
Br1    Br    0.78282   0.49923   0.76033   0.00000  Uiso   1.00
Br2    Br    0.67883   0.50021   0.23969   0.00000  Uiso   1.00
