# Generated by REPEAT Assigner based on pymatgen
data_DB12-FIJDOS_clean
_audit_creation_date              2022-05-24
_audit_creation_method            REPEAT_Assigner
_cell_length_a                    6.836500
_cell_length_b                    15.144400
_cell_length_c                    15.144400
_cell_angle_alpha                 62.222700
_cell_angle_beta                  81.345600
_cell_angle_gamma                 98.654400
_cell_volume                      1327.156464
_symmetry_space_group_name_H-M    P1
_symmetry_Int_Tables_number       1
loop_
    _symmetry_equiv_pos_site_id
    _symmetry_equiv_pos_as_xyz
    1  x,y,z
loop_
    _atom_site_type_symbol
    _atom_site_label
    _atom_site_fract_x
    _atom_site_fract_y
    _atom_site_fract_z
    _atom_type_partial_charge
    Zn  Zn1  0.889260  0.684390  0.577920  1.182914
    Zn  Zn2  0.467180  0.577920  0.737690  1.183269
    Zn  Zn3  0.204870  0.737690  0.684390  1.184334
    Zn  Zn4  0.110740  0.315610  0.422080  1.182908
    Zn  Zn5  0.532820  0.422080  0.262310  1.183279
    Zn  Zn6  0.795130  0.262310  0.315610  1.184332
    H   H1   0.669500  0.018100  0.529700  0.163624
    H   H2   0.199200  0.529700  0.452200  0.163426
    H   H3   0.651400  0.452200  0.018100  0.163791
    H   H4   0.330500  0.981900  0.470300  0.163626
    H   H5   0.800800  0.470300  0.547800  0.163427
    H   H6   0.348600  0.547800  0.981900  0.163787
    C   C1   0.648340  0.823880  0.614060  0.774655
    C   C2   0.835020  0.912180  0.553320  -0.310658
    C   C3   0.035880  0.899470  0.534730  0.221308
    C   C4   0.805340  0.011250  0.517630  -0.071360
    C   C5   0.262400  0.614060  0.562060  0.768388
    C   C6   0.388340  0.553320  0.534500  -0.303888
    C   C7   0.570610  0.534730  0.565800  0.217063
    C   C8   0.322970  0.517630  0.471120  -0.074312
    C   C9   0.824460  0.562060  0.823880  0.774183
    C   C10  0.922840  0.534500  0.912180  -0.305305
    C   C11  0.136410  0.565800  0.899470  0.217300
    C   C12  0.794090  0.471120  0.011250  -0.073217
    C   C13  0.351660  0.176120  0.385940  0.774664
    C   C14  0.164980  0.087820  0.446680  -0.310652
    C   C15  0.964120  0.100530  0.465270  0.221292
    C   C16  0.194660  0.988750  0.482370  -0.071373
    C   C17  0.737600  0.385940  0.437940  0.768381
    C   C18  0.611660  0.446680  0.465500  -0.303892
    C   C19  0.429390  0.465270  0.434200  0.217072
    C   C20  0.677030  0.482370  0.528880  -0.074306
    C   C21  0.175540  0.437940  0.176120  0.774185
    C   C22  0.077160  0.465500  0.087820  -0.305310
    C   C23  0.863590  0.434200  0.100530  0.217310
    C   C24  0.205910  0.528880  0.988750  -0.073207
    O   O1   0.670540  0.733080  0.651660  -0.652494
    O   O2   0.477210  0.843950  0.625520  -0.667403
    O   O3   0.082430  0.808240  0.563050  -0.642196
    O   O4   0.322200  0.651660  0.615260  -0.649935
    O   O5   0.102730  0.625520  0.530530  -0.663941
    O   O6   0.645480  0.563050  0.628710  -0.638066
    O   O7   0.937460  0.615260  0.733080  -0.654239
    O   O8   0.633260  0.530530  0.843950  -0.667425
    O   O9   0.274190  0.628710  0.808240  -0.639817
    O   O10  0.329460  0.266920  0.348340  -0.652495
    O   O11  0.522790  0.156050  0.374480  -0.667407
    O   O12  0.917570  0.191760  0.436950  -0.642193
    O   O13  0.677800  0.348340  0.384740  -0.649933
    O   O14  0.897270  0.374480  0.469470  -0.663933
    O   O15  0.354520  0.436950  0.371290  -0.638068
    O   O16  0.062540  0.384740  0.266920  -0.654239
    O   O17  0.366740  0.469470  0.156050  -0.667432
    O   O18  0.725810  0.371290  0.191760  -0.639820
