# Generated by REPEAT Assigner based on pymatgen
data_DB12-OLOPEM_clean
_audit_creation_date              2022-05-24
_audit_creation_method            REPEAT_Assigner
_cell_length_a                    26.982000
_cell_length_b                    8.033000
_cell_length_c                    23.293000
_cell_angle_alpha                 90.000000
_cell_angle_beta                  98.992000
_cell_angle_gamma                 90.000000
_cell_volume                      4986.626706
_symmetry_space_group_name_H-M    P1
_symmetry_Int_Tables_number       1
loop_
    _symmetry_equiv_pos_site_id
    _symmetry_equiv_pos_as_xyz
    1  x,y,z
loop_
    _atom_site_type_symbol
    _atom_site_label
    _atom_site_fract_x
    _atom_site_fract_y
    _atom_site_fract_z
    _atom_type_partial_charge
    C   C1    0.945780  0.184100  0.055600  0.756481
    C   C2    0.889100  0.881100  0.318700  0.044645
    C   C3    0.829530  0.583400  0.004800  0.048802
    C   C4    0.836110  0.443000  0.975100  -0.182393
    C   C5    0.878200  0.432500  0.949000  -0.061316
    C   C6    0.911800  0.567400  0.954600  -0.001892
    C   C7    0.801190  0.301000  0.972000  0.424389
    C   C8    0.810400  0.152200  0.938000  -0.203986
    C   C9    0.554220  0.315900  0.944400  0.756966
    C   C10   0.579920  0.201300  0.908800  -0.210285
    C   C11   0.622000  0.250900  0.885900  -0.043379
    C   C12   0.644000  0.143200  0.850800  -0.336936
    C   C13   0.932180  0.808600  0.346900  -0.317774
    C   C14   0.624600  0.995800  0.838000  0.476033
    C   C15   0.583900  0.936900  0.862600  -0.236065
    C   C16   0.562020  0.042400  0.897100  0.037387
    C   C17   0.619100  0.825100  0.754200  0.461488
    C   C18   0.636200  0.685400  0.732300  -0.353428
    C   C19   0.610900  0.618900  0.681300  0.044664
    C   C20   0.567820  0.691400  0.653100  -0.317868
    C   C21   0.551400  0.835700  0.677100  0.068287
    C   C22   0.576600  0.902200  0.726900  -0.352747
    C   C23   0.541420  0.624900  0.598000  0.883918
    C   C24   0.948600  0.664300  0.322900  0.067978
    C   C25   0.365140  0.207900  0.009600  -0.014177
    C   C26   0.329530  0.083400  0.004800  0.049075
    C   C27   0.336110  0.943000  0.975100  -0.182594
    C   C28   0.378200  0.932500  0.949000  -0.061068
    C   C29   0.411800  0.067400  0.954600  -0.002245
    C   C30   0.301190  0.801000  0.972000  0.424462
    C   C31   0.310400  0.652200  0.938000  -0.204081
    C   C32   0.945780  0.815900  0.555600  0.756436
    C   C33   0.920080  0.701300  0.591200  -0.210377
    C   C34   0.878000  0.750900  0.614100  -0.043099
    C   C35   0.923400  0.597800  0.273100  -0.352513
    C   C36   0.856000  0.643200  0.649200  -0.337274
    C   C37   0.875400  0.495800  0.662000  0.476312
    C   C38   0.916100  0.436900  0.637400  -0.236000
    C   C39   0.937980  0.542400  0.602900  0.037915
    C   C40   0.880900  0.325100  0.745800  0.461415
    C   C41   0.863800  0.185400  0.767700  -0.353363
    C   C42   0.889100  0.118900  0.818700  0.044629
    C   C43   0.932180  0.191400  0.846900  -0.317683
    C   C44   0.948600  0.335700  0.822900  0.067763
    C   C45   0.923400  0.402200  0.773100  -0.352412
    C   C46   0.958580  0.875100  0.402000  0.883885
    C   C47   0.958580  0.124900  0.902000  0.883854
    C   C48   0.134860  0.707900  0.490400  -0.013608
    C   C49   0.170470  0.583400  0.495200  0.048755
    C   C50   0.163890  0.443000  0.524900  -0.182292
    C   C51   0.121800  0.432500  0.551000  -0.061194
    C   C52   0.088200  0.567400  0.545400  -0.002199
    C   C53   0.198810  0.301000  0.528000  0.424384
    C   C54   0.189600  0.152200  0.562000  -0.204031
    C   C55   0.445780  0.315900  0.555600  0.756525
    C   C56   0.420080  0.201300  0.591200  -0.210454
    C   C57   0.134860  0.292100  0.990400  -0.013615
    C   C58   0.378000  0.250900  0.614100  -0.043053
    C   C59   0.356000  0.143200  0.649200  -0.337325
    C   C60   0.375400  0.995800  0.662000  0.476320
    C   C61   0.416100  0.936900  0.637400  -0.236013
    C   C62   0.437980  0.042400  0.602900  0.037978
    C   C63   0.380900  0.825100  0.745800  0.461429
    C   C64   0.363800  0.685400  0.767700  -0.353417
    C   C65   0.389100  0.618900  0.818700  0.044673
    C   C66   0.432180  0.691400  0.846900  -0.317769
    C   C67   0.448600  0.835700  0.822900  0.067862
    C   C68   0.170470  0.416600  0.995200  0.048950
    C   C69   0.423400  0.902200  0.773100  -0.352432
    C   C70   0.458580  0.624900  0.902000  0.884019
    C   C71   0.634860  0.207900  0.490400  -0.013788
    C   C72   0.670470  0.083400  0.495200  0.048803
    C   C73   0.663890  0.943000  0.524900  -0.182128
    C   C74   0.621800  0.932500  0.551000  -0.061499
    C   C75   0.588200  0.067400  0.545400  -0.002033
    C   C76   0.698810  0.801000  0.528000  0.424417
    C   C77   0.689600  0.652200  0.562000  -0.204373
    C   C78   0.163890  0.557000  0.024900  -0.182463
    C   C79   0.121800  0.567500  0.051000  -0.061100
    C   C80   0.088200  0.432600  0.045400  -0.002329
    C   C81   0.920080  0.298700  0.091200  -0.210394
    C   C82   0.198810  0.699000  0.028000  0.424436
    C   C83   0.189600  0.847800  0.062000  -0.203967
    C   C84   0.445780  0.684100  0.055600  0.756649
    C   C85   0.420080  0.798700  0.091200  -0.210384
    C   C86   0.378000  0.749100  0.114100  -0.043117
    C   C87   0.356000  0.856800  0.149200  -0.337349
    C   C88   0.375400  0.004200  0.162000  0.476416
    C   C89   0.416100  0.063100  0.137400  -0.236005
    C   C90   0.437980  0.957600  0.102900  0.037906
    C   C91   0.380900  0.174900  0.245800  0.461525
    C   C92   0.878000  0.249100  0.114100  -0.043102
    C   C93   0.363800  0.314600  0.267700  -0.353441
    C   C94   0.389100  0.381100  0.318700  0.044652
    C   C95   0.432180  0.308600  0.346900  -0.317818
    C   C96   0.448600  0.164300  0.322900  0.068033
    C   C97   0.423400  0.097800  0.273100  -0.352557
    C   C98   0.458580  0.375100  0.402000  0.883906
    C   C99   0.634860  0.792100  0.990400  -0.014007
    C   C100  0.670470  0.916600  0.995200  0.049171
    C   C101  0.663890  0.057000  0.024900  -0.182679
    C   C102  0.621800  0.067500  0.051000  -0.061022
    C   C103  0.856000  0.356800  0.149200  -0.337298
    C   C104  0.588200  0.932600  0.045400  -0.002412
    C   C105  0.698810  0.199000  0.028000  0.424657
    C   C106  0.689600  0.347800  0.062000  -0.204337
    C   C107  0.054220  0.184100  0.444400  0.756226
    C   C108  0.079920  0.298700  0.408800  -0.209888
    C   C109  0.122000  0.249100  0.385900  -0.043393
    C   C110  0.144000  0.356800  0.350800  -0.337063
    C   C111  0.124600  0.504200  0.338000  0.476148
    C   C112  0.083900  0.563100  0.362600  -0.235661
    C   C113  0.062020  0.457600  0.397100  0.037345
    C   C114  0.875400  0.504200  0.162000  0.476341
    C   C115  0.119100  0.674900  0.254200  0.461525
    C   C116  0.136200  0.814600  0.232300  -0.353430
    C   C117  0.110900  0.881100  0.181300  0.044619
    C   C118  0.067820  0.808600  0.153100  -0.317778
    C   C119  0.051400  0.664300  0.177100  0.068140
    C   C120  0.076600  0.597800  0.226900  -0.352616
    C   C121  0.041420  0.875100  0.098000  0.883862
    C   C122  0.865140  0.292100  0.509600  -0.013720
    C   C123  0.829530  0.416600  0.504800  0.048738
    C   C124  0.836110  0.557000  0.475100  -0.182260
    C   C125  0.916100  0.563100  0.137400  -0.235981
    C   C126  0.878200  0.567500  0.449000  -0.061399
    C   C127  0.911800  0.432600  0.454600  -0.001938
    C   C128  0.801190  0.699000  0.472000  0.424454
    C   C129  0.810400  0.847800  0.438000  -0.204127
    C   C130  0.554220  0.684100  0.444400  0.756322
    C   C131  0.579920  0.798700  0.408800  -0.209947
    C   C132  0.622000  0.749100  0.385900  -0.043416
    C   C133  0.644000  0.856800  0.350800  -0.336978
    C   C134  0.624600  0.004200  0.338000  0.476075
    C   C135  0.583900  0.063100  0.362600  -0.235645
    C   C136  0.937980  0.457600  0.102900  0.037932
    C   C137  0.562020  0.957600  0.397100  0.037394
    C   C138  0.619100  0.174900  0.254200  0.461556
    C   C139  0.636200  0.314600  0.232300  -0.353528
    C   C140  0.610900  0.381100  0.181300  0.044712
    C   C141  0.567820  0.308600  0.153100  -0.317828
    C   C142  0.551400  0.164300  0.177100  0.068094
    C   C143  0.576600  0.097800  0.226900  -0.352600
    C   C144  0.541420  0.375100  0.098000  0.883989
    C   C145  0.365140  0.792100  0.509600  -0.013919
    C   C146  0.329530  0.916600  0.504800  0.048793
    C   C147  0.880900  0.674900  0.245800  0.461477
    C   C148  0.336110  0.057000  0.475100  -0.182085
    C   C149  0.378200  0.067500  0.449000  -0.061706
    C   C150  0.411800  0.932600  0.454600  -0.001774
    C   C151  0.301190  0.199000  0.472000  0.424464
    C   C152  0.310400  0.347800  0.438000  -0.204451
    C   C153  0.054220  0.815900  0.944400  0.756594
    C   C154  0.079920  0.701300  0.908800  -0.209868
    C   C155  0.122000  0.750900  0.885900  -0.043525
    C   C156  0.144000  0.643200  0.850800  -0.336862
    C   C157  0.124600  0.495800  0.838000  0.475885
    C   C158  0.863800  0.814600  0.267700  -0.353428
    C   C159  0.083900  0.436900  0.862600  -0.235711
    C   C160  0.062020  0.542400  0.897100  0.036861
    C   C161  0.119100  0.325100  0.754200  0.461491
    C   C162  0.136200  0.185400  0.732300  -0.353428
    C   C163  0.110900  0.118900  0.681300  0.044673
    C   C164  0.067820  0.191400  0.653100  -0.317849
    C   C165  0.051400  0.335700  0.677100  0.068273
    C   C166  0.076600  0.402200  0.726900  -0.352769
    C   C167  0.041420  0.124900  0.598000  0.883907
    C   C168  0.865140  0.707900  0.009600  -0.013829
    H   H1    0.864600  0.143600  0.105900  0.121765
    H   H2    0.199100  0.403800  0.977900  0.034309
    H   H3    0.199100  0.596200  0.477900  0.034346
    H   H4    0.115700  0.338300  0.572000  0.119253
    H   H5    0.060400  0.562100  0.564500  0.086332
    H   H6    0.199200  0.174900  0.602700  0.062688
    H   H7    0.154500  0.124500  0.554400  0.111527
    H   H8    0.208900  0.060600  0.551000  0.029059
    H   H9    0.364600  0.356400  0.605900  0.121751
    H   H10   0.327200  0.175700  0.663700  0.175001
    H   H11   0.428000  0.828900  0.644400  0.121323
    H   H12   0.465600  0.006200  0.586900  0.092925
    H   H13   0.115700  0.661700  0.072000  0.119232
    H   H14   0.335100  0.633700  0.748500  0.175060
    H   H15   0.376800  0.523500  0.834200  0.089217
    H   H16   0.477400  0.888200  0.841400  0.098669
    H   H17   0.435000  0.999000  0.757700  0.130231
    H   H18   0.639900  0.302700  0.469200  0.097674
    H   H19   0.699100  0.096200  0.477900  0.034321
    H   H20   0.615700  0.838300  0.572000  0.119374
    H   H21   0.560400  0.062100  0.564500  0.086294
    H   H22   0.699200  0.674900  0.602700  0.062749
    H   H23   0.654500  0.624500  0.554400  0.111613
    H   H24   0.060400  0.437900  0.064500  0.086374
    H   H25   0.708900  0.560600  0.551000  0.029207
    H   H26   0.199200  0.825100  0.102700  0.062674
    H   H27   0.154500  0.875500  0.054400  0.111487
    H   H28   0.208900  0.939400  0.051000  0.029044
    H   H29   0.364600  0.643600  0.105900  0.121788
    H   H30   0.327200  0.824300  0.163700  0.175010
    H   H31   0.428000  0.171100  0.144400  0.121291
    H   H32   0.465600  0.993800  0.086900  0.092903
    H   H33   0.827200  0.324300  0.163700  0.175002
    H   H34   0.335100  0.366300  0.248500  0.175066
    H   H35   0.376800  0.476500  0.334200  0.089231
    H   H36   0.477400  0.111800  0.341400  0.098589
    H   H37   0.435000  0.001000  0.257700  0.130239
    H   H38   0.639900  0.697300  0.969200  0.097707
    H   H39   0.699100  0.903800  0.977900  0.034273
    H   H40   0.615700  0.161700  0.072000  0.119216
    H   H41   0.560400  0.937900  0.064500  0.086340
    H   H42   0.699200  0.325100  0.102700  0.062751
    H   H43   0.654500  0.375500  0.054400  0.111643
    H   H44   0.928000  0.671100  0.144400  0.121307
    H   H45   0.708900  0.439400  0.051000  0.029088
    H   H46   0.135400  0.143600  0.394100  0.121828
    H   H47   0.172800  0.324300  0.336300  0.174952
    H   H48   0.072000  0.671100  0.355600  0.121228
    H   H49   0.034400  0.493800  0.413100  0.093026
    H   H50   0.164900  0.866300  0.251500  0.175060
    H   H51   0.123200  0.976500  0.165800  0.089242
    H   H52   0.022600  0.611800  0.158600  0.098477
    H   H53   0.065000  0.501000  0.242300  0.130268
    H   H54   0.860100  0.197300  0.530800  0.097629
    H   H55   0.965600  0.493800  0.086900  0.092908
    H   H56   0.800900  0.403800  0.522100  0.034371
    H   H57   0.884300  0.661700  0.428000  0.119316
    H   H58   0.939600  0.437900  0.435500  0.086191
    H   H59   0.800800  0.825100  0.397300  0.062717
    H   H60   0.845500  0.875500  0.445600  0.111547
    H   H61   0.791100  0.939400  0.449000  0.029083
    H   H62   0.635400  0.643600  0.394100  0.121844
    H   H63   0.672800  0.824300  0.336300  0.174896
    H   H64   0.572000  0.171100  0.355600  0.121221
    H   H65   0.534400  0.993800  0.413100  0.093019
    H   H66   0.835100  0.866300  0.248500  0.175068
    H   H67   0.664900  0.366300  0.251500  0.175088
    H   H68   0.623200  0.476500  0.165800  0.089237
    H   H69   0.522600  0.111800  0.158600  0.098519
    H   H70   0.565000  0.001000  0.242300  0.130261
    H   H71   0.360100  0.697300  0.530800  0.097718
    H   H72   0.300900  0.903800  0.522100  0.034344
    H   H73   0.384300  0.161700  0.428000  0.119438
    H   H74   0.439600  0.937900  0.435500  0.086154
    H   H75   0.300800  0.325100  0.397300  0.062769
    H   H76   0.345500  0.375500  0.445600  0.111632
    H   H77   0.876800  0.976500  0.334200  0.089221
    H   H78   0.291100  0.439400  0.449000  0.029227
    H   H79   0.135400  0.856400  0.894100  0.121891
    H   H80   0.172800  0.675700  0.836300  0.174927
    H   H81   0.072000  0.328900  0.855600  0.121359
    H   H82   0.034400  0.506200  0.913100  0.093301
    H   H83   0.164900  0.133700  0.751500  0.175047
    H   H84   0.123200  0.023500  0.665800  0.089223
    H   H85   0.022600  0.388200  0.658600  0.098401
    H   H86   0.065000  0.499000  0.742300  0.130406
    H   H87   0.860100  0.802700  0.030800  0.097655
    H   H88   0.977400  0.611800  0.341400  0.098610
    H   H89   0.800900  0.596200  0.022100  0.034377
    H   H90   0.884300  0.338300  0.928000  0.119315
    H   H91   0.939600  0.562100  0.935500  0.086118
    H   H92   0.800800  0.174900  0.897300  0.062673
    H   H93   0.845500  0.124500  0.945600  0.111486
    H   H94   0.791100  0.060600  0.949000  0.029103
    H   H95   0.635400  0.356400  0.894100  0.121881
    H   H96   0.672800  0.175700  0.836300  0.174905
    H   H97   0.572000  0.828900  0.855600  0.121441
    H   H98   0.534400  0.006200  0.913100  0.093196
    H   H99   0.935000  0.501000  0.257700  0.130232
    H   H100  0.664900  0.633700  0.751500  0.175049
    H   H101  0.623200  0.523500  0.665800  0.089236
    H   H102  0.522600  0.888200  0.658600  0.098389
    H   H103  0.565000  0.999000  0.742300  0.130394
    H   H104  0.360100  0.302700  0.030800  0.097747
    H   H105  0.300900  0.096200  0.022100  0.034307
    H   H106  0.384300  0.838300  0.928000  0.119251
    H   H107  0.439600  0.062100  0.935500  0.086226
    H   H108  0.300800  0.674900  0.897300  0.062684
    H   H109  0.345500  0.624500  0.945600  0.111541
    H   H110  0.139900  0.197300  0.969200  0.097601
    H   H111  0.291100  0.560600  0.949000  0.029115
    H   H112  0.864600  0.856400  0.605900  0.121755
    H   H113  0.827200  0.675700  0.663700  0.174997
    H   H114  0.928000  0.328900  0.644400  0.121325
    H   H115  0.965600  0.506200  0.586900  0.092935
    H   H116  0.835100  0.133700  0.748500  0.175046
    H   H117  0.876800  0.023500  0.834200  0.089209
    H   H118  0.977400  0.388200  0.841400  0.098749
    H   H119  0.935000  0.499000  0.757700  0.130226
    H   H120  0.139900  0.802700  0.469200  0.097592
    N   N1    0.093850  0.301900  0.014820  -0.074408
    N   N2    0.765780  0.320200  0.000900  -0.261338
    N   N3    0.406150  0.198100  0.985180  -0.073987
    N   N4    0.265780  0.820200  0.000900  -0.261378
    N   N5    0.093850  0.698100  0.514820  -0.074462
    N   N6    0.234220  0.320200  0.499100  -0.261439
    N   N7    0.593850  0.198100  0.514820  -0.074474
    N   N8    0.734220  0.820200  0.499100  -0.261282
    N   N9    0.234220  0.679800  0.999100  -0.261406
    N   N10   0.593850  0.801900  0.014820  -0.074004
    N   N11   0.734220  0.179800  0.999100  -0.261476
    N   N12   0.906150  0.301900  0.485180  -0.074372
    N   N13   0.765780  0.679800  0.500900  -0.261490
    N   N14   0.406150  0.801900  0.485180  -0.074376
    N   N15   0.265780  0.179800  0.500900  -0.261324
    N   N16   0.906150  0.698100  0.985180  -0.074320
    O   O1    0.986050  0.233400  0.041530  -0.636669
    O   O2    0.498640  0.308300  0.424180  -0.667815
    O   O3    0.013950  0.233400  0.458470  -0.636514
    O   O4    0.074410  0.046900  0.457850  -0.637226
    O   O5    0.147450  0.609900  0.303400  -0.430344
    O   O6    0.061140  0.995000  0.076610  -0.724316
    O   O7    0.001360  0.808300  0.075820  -0.667849
    O   O8    0.513950  0.733400  0.458470  -0.636561
    O   O9    0.574410  0.546900  0.457850  -0.637279
    O   O10   0.647450  0.109900  0.303400  -0.430309
    O   O11   0.561140  0.495000  0.076610  -0.724508
    O   O12   0.925590  0.046900  0.042150  -0.637212
    O   O13   0.501360  0.308300  0.075820  -0.667854
    O   O14   0.013950  0.766600  0.958470  -0.636633
    O   O15   0.074410  0.953100  0.957850  -0.637375
    O   O16   0.147450  0.390100  0.803400  -0.430214
    O   O17   0.061140  0.005000  0.576610  -0.724312
    O   O18   0.001360  0.191700  0.575820  -0.667864
    O   O19   0.513950  0.266600  0.958470  -0.636879
    O   O20   0.574410  0.453100  0.957850  -0.637528
    O   O21   0.647450  0.890100  0.803400  -0.430222
    O   O22   0.561140  0.505000  0.576610  -0.724331
    O   O23   0.852550  0.609900  0.196600  -0.430351
    O   O24   0.501360  0.691700  0.575820  -0.667860
    O   O25   0.986050  0.766600  0.541530  -0.636655
    O   O26   0.925590  0.953100  0.542150  -0.637204
    O   O27   0.852550  0.390100  0.696600  -0.430337
    O   O28   0.938860  0.005000  0.923390  -0.724322
    O   O29   0.998640  0.191700  0.924180  -0.667890
    O   O30   0.486050  0.266600  0.541530  -0.636697
    O   O31   0.425590  0.453100  0.542150  -0.637255
    O   O32   0.352550  0.890100  0.696600  -0.430322
    O   O33   0.438860  0.505000  0.923390  -0.724459
    O   O34   0.938860  0.995000  0.423390  -0.724343
    O   O35   0.498640  0.691700  0.924180  -0.667969
    O   O36   0.998640  0.808300  0.424180  -0.667813
    O   O37   0.486050  0.733400  0.041530  -0.636759
    O   O38   0.425590  0.546900  0.042150  -0.637384
    O   O39   0.352550  0.109900  0.196600  -0.430383
    O   O40   0.438860  0.495000  0.423390  -0.724362
    Zn  Zn1   0.039810  0.124770  0.001640  0.999384
    Zn  Zn2   0.539810  0.624770  0.001640  0.999429
    Zn  Zn3   0.960190  0.124770  0.498360  0.999211
    Zn  Zn4   0.460190  0.624770  0.498360  0.999239
    Zn  Zn5   0.960190  0.875230  0.998360  0.999205
    Zn  Zn6   0.460190  0.375230  0.998360  0.999378
    Zn  Zn7   0.039810  0.875230  0.501640  0.999348
    Zn  Zn8   0.539810  0.375230  0.501640  0.999379
