# Generated by REPEAT Assigner based on pymatgen
data_DB12-HAWZEM_freeONLY
_audit_creation_date              2022-05-24
_audit_creation_method            REPEAT_Assigner
_cell_length_a                    11.675500
_cell_length_b                    12.252100
_cell_length_c                    12.494800
_cell_angle_alpha                 90.000000
_cell_angle_beta                  117.046000
_cell_angle_gamma                 90.000000
_cell_volume                      1591.909518
_symmetry_space_group_name_H-M    P1
_symmetry_Int_Tables_number       1
loop_
    _symmetry_equiv_pos_site_id
    _symmetry_equiv_pos_as_xyz
    1  x,y,z
loop_
    _atom_site_type_symbol
    _atom_site_label
    _atom_site_fract_x
    _atom_site_fract_y
    _atom_site_fract_z
    _atom_type_partial_charge
    Cu  Cu1  0.178800  0.964380  0.467380  0.634586
    Cu  Cu2  0.321200  0.464380  0.032620  0.634580
    H   H1   0.111900  0.757400  0.147600  0.165808
    H   H2   0.132100  0.619300  0.034300  0.112767
    H   H3   0.500700  0.599800  0.242600  0.069917
    H   H4   0.492000  0.743400  0.355200  0.110190
    H   H5   0.388100  0.257400  0.352400  0.165808
    H   H6   0.367900  0.119300  0.465700  0.112756
    H   H7   0.999300  0.099800  0.257400  0.069916
    H   H8   0.008000  0.243400  0.144800  0.110196
    H   H9   0.027200  0.204600  0.743500  0.155007
    H   H10  0.099700  0.341600  0.883200  0.094012
    H   H11  0.383900  0.172200  0.784800  0.115209
    H   H12  0.447500  0.307700  0.928100  0.078683
    H   H13  0.472800  0.704600  0.756500  0.154999
    H   H14  0.400300  0.841600  0.616800  0.094012
    H   H15  0.116100  0.672200  0.715200  0.115209
    H   H16  0.052500  0.807700  0.571900  0.078682
    C   C1   0.293300  0.850900  0.351500  0.643987
    C   C2   0.192100  0.726700  0.168300  -0.202241
    C   C3   0.205000  0.643300  0.101400  0.089739
    C   C4   0.301100  0.764800  0.267900  -0.023672
    C   C5   0.421700  0.632500  0.222800  0.070981
    C   C6   0.416800  0.717700  0.292000  -0.154363
    C   C7   0.206700  0.350900  0.148500  0.643984
    C   C8   0.307900  0.226700  0.331700  -0.202245
    C   C9   0.295000  0.143300  0.398600  0.089752
    C   C10  0.198900  0.264800  0.232100  -0.023664
    C   C11  0.078300  0.132500  0.277200  0.070993
    C   C12  0.083200  0.217700  0.208000  -0.154379
    C   C13  0.148500  0.085800  0.649800  0.714398
    C   C14  0.197900  0.173100  0.746100  -0.052692
    C   C15  0.113400  0.224700  0.778600  -0.212230
    C   C16  0.158300  0.306400  0.863800  0.064717
    C   C17  0.323500  0.205300  0.803500  -0.100775
    C   C18  0.361400  0.287300  0.889800  0.005149
    C   C19  0.351500  0.585800  0.850200  0.714399
    C   C20  0.302100  0.673100  0.753900  -0.052694
    C   C21  0.386600  0.724700  0.721400  -0.212223
    C   C22  0.341700  0.806400  0.636200  0.064717
    C   C23  0.176500  0.705300  0.696500  -0.100775
    C   C24  0.138600  0.787300  0.610200  0.005152
    N   N1   0.317500  0.594900  0.128200  -0.034673
    N   N2   0.182500  0.094900  0.371800  -0.034684
    N   N3   0.279600  0.337300  0.919300  -0.007248
    N   N4   0.220400  0.837300  0.580700  -0.007254
    O   O1   0.181340  0.867130  0.342040  -0.602448
    O   O2   0.392500  0.895200  0.424500  -0.564090
    O   O3   0.318660  0.367130  0.157960  -0.602448
    O   O4   0.107500  0.395200  0.075500  -0.564088
    O   O5   0.043500  0.043600  0.624200  -0.526636
    O   O6   0.222300  0.064070  0.603300  -0.643835
    O   O7   0.456500  0.543600  0.875800  -0.526630
    O   O8   0.277700  0.564070  0.896700  -0.643841
    Cu  Cu3  0.821200  0.035620  0.532620  0.634315
    Cu  Cu4  0.678800  0.535620  0.967380  0.634306
    H   H17  0.972800  0.795400  0.256500  0.155011
    H   H18  0.900300  0.658400  0.116800  0.094007
    H   H19  0.616100  0.827800  0.215200  0.115208
    H   H20  0.552500  0.692300  0.071900  0.078685
    H   H21  0.527200  0.295400  0.243500  0.155011
    H   H22  0.599700  0.158400  0.383200  0.094010
    H   H23  0.883900  0.327800  0.284800  0.115208
    H   H24  0.947500  0.192300  0.428100  0.078681
    H   H25  0.888100  0.242600  0.852400  0.165812
    H   H26  0.867900  0.380700  0.965700  0.112750
    H   H27  0.499300  0.400200  0.757400  0.069919
    H   H28  0.508000  0.256600  0.644800  0.110200
    H   H29  0.611900  0.742600  0.647600  0.165816
    H   H30  0.632100  0.880700  0.534300  0.112755
    H   H31  0.000700  0.900200  0.742600  0.069920
    H   H32  0.992000  0.756600  0.855200  0.110194
    C   C25  0.851500  0.914200  0.350200  0.714407
    C   C26  0.802100  0.826900  0.253900  -0.052701
    C   C27  0.886600  0.775300  0.221400  -0.212227
    C   C28  0.841700  0.693600  0.136200  0.064721
    C   C29  0.676500  0.794700  0.196500  -0.100776
    C   C30  0.638600  0.712700  0.110200  0.005152
    C   C31  0.648500  0.414200  0.149800  0.714393
    C   C32  0.697900  0.326900  0.246100  -0.052698
    C   C33  0.613400  0.275300  0.278600  -0.212227
    C   C34  0.658300  0.193600  0.363800  0.064722
    C   C35  0.823500  0.294700  0.303500  -0.100778
    C   C36  0.861400  0.212700  0.389800  0.005159
    C   C37  0.706700  0.149100  0.648500  0.643978
    C   C38  0.807900  0.273300  0.831700  -0.202257
    C   C39  0.795000  0.356700  0.898600  0.089767
    C   C40  0.698900  0.235200  0.732100  -0.023663
    C   C41  0.578300  0.367500  0.777200  0.070985
    C   C42  0.583200  0.282300  0.708000  -0.154378
    C   C43  0.793300  0.649100  0.851500  0.643980
    C   C44  0.692100  0.773300  0.668300  -0.202261
    C   C45  0.705000  0.856700  0.601400  0.089764
    C   C46  0.801100  0.735200  0.767900  -0.023664
    C   C47  0.921700  0.867500  0.722800  0.070982
    C   C48  0.916800  0.782300  0.792000  -0.154370
    N   N5   0.720400  0.662700  0.080700  -0.007300
    N   N6   0.779600  0.162700  0.419300  -0.007307
    N   N7   0.682500  0.405100  0.871800  -0.034736
    N   N8   0.817500  0.905100  0.628200  -0.034734
    O   O9   0.956500  0.956400  0.375800  -0.526649
    O   O10  0.777700  0.935930  0.396700  -0.643885
    O   O11  0.543500  0.456400  0.124200  -0.526642
    O   O12  0.722300  0.435930  0.103300  -0.643874
    O   O13  0.818660  0.132870  0.657960  -0.602494
    O   O14  0.607500  0.104800  0.575500  -0.564091
    O   O15  0.681340  0.632870  0.842040  -0.602492
    O   O16  0.892500  0.604800  0.924500  -0.564092
