# Generated by REPEAT Assigner based on pymatgen
data_DB12-IXUWII_clean
_audit_creation_date              2022-05-24
_audit_creation_method            REPEAT_Assigner
_cell_length_a                    16.130000
_cell_length_b                    16.878700
_cell_length_c                    16.878700
_cell_angle_alpha                 92.376500
_cell_angle_beta                  100.838000
_cell_angle_gamma                 79.162000
_cell_volume                      4432.722769
_symmetry_space_group_name_H-M    P1
_symmetry_Int_Tables_number       1
loop_
    _symmetry_equiv_pos_site_id
    _symmetry_equiv_pos_as_xyz
    1  x,y,z
loop_
    _atom_site_type_symbol
    _atom_site_label
    _atom_site_fract_x
    _atom_site_fract_y
    _atom_site_fract_z
    _atom_type_partial_charge
    Co  Co1   0.236660  0.237460  0.782140  0.847783
    Co  Co2   0.263340  0.782140  0.237460  0.847771
    Co  Co3   0.763340  0.762540  0.217860  0.847766
    Co  Co4   0.736660  0.217860  0.762540  0.847788
    H   H1    0.414600  0.485500  0.054900  0.344580
    H   H2    0.488100  0.151100  0.679500  0.110249
    H   H3    0.528100  0.396600  0.417000  0.387584
    H   H4    0.570200  0.070900  0.597300  0.105973
    H   H5    0.359800  0.995300  0.476900  0.076747
    H   H6    0.277900  0.070000  0.562200  0.109605
    H   H7    0.992800  0.164900  0.843900  0.149371
    H   H8    0.920800  0.099600  0.918800  0.084477
    H   H9    0.349400  0.360900  0.820900  -0.058173
    H   H10   0.236500  0.263400  0.964800  0.049460
    H   H11   0.291100  0.338100  0.072700  0.204497
    H   H12   0.416200  0.429600  0.923200  0.178211
    H   H13   0.419700  0.589800  0.133000  0.094165
    H   H14   0.492100  0.670400  0.220200  0.063090
    H   H15   0.572100  0.623400  0.345000  0.061454
    H   H16   0.487100  0.410400  0.296800  0.076392
    H   H17   0.589800  0.230500  0.624700  0.085369
    H   H18   0.523800  0.302700  0.511500  0.177296
    H   H19   0.704100  0.439600  0.557800  0.235034
    H   H20   0.761900  0.366100  0.671500  0.000219
    H   H21   0.135400  0.945200  0.003800  0.124847
    H   H22   0.208100  0.015200  0.932400  0.119078
    H   H23   0.085400  0.054900  0.485500  0.344576
    H   H24   0.011900  0.679500  0.151100  0.110238
    H   H25   0.971900  0.417000  0.396600  0.387588
    H   H26   0.929800  0.597300  0.070900  0.105986
    H   H27   0.140200  0.476900  0.995300  0.076738
    H   H28   0.222100  0.562200  0.070000  0.109602
    H   H29   0.507200  0.843900  0.164900  0.149427
    H   H30   0.579200  0.918800  0.099600  0.084442
    H   H31   0.150600  0.820900  0.360900  -0.058189
    H   H32   0.263500  0.964800  0.263400  0.049449
    H   H33   0.208900  0.072700  0.338100  0.204506
    H   H34   0.083800  0.923200  0.429600  0.178242
    H   H35   0.080300  0.133000  0.589800  0.094167
    H   H36   0.007900  0.220200  0.670400  0.063096
    H   H37   0.927900  0.345000  0.623400  0.061449
    H   H38   0.012900  0.296800  0.410400  0.076392
    H   H39   0.910200  0.624700  0.230500  0.085375
    H   H40   0.976200  0.511500  0.302700  0.177301
    H   H41   0.795900  0.557800  0.439600  0.235037
    H   H42   0.738100  0.671500  0.366100  0.000225
    H   H43   0.364600  0.003800  0.945200  0.124848
    H   H44   0.291900  0.932400  0.015200  0.119067
    H   H45   0.585400  0.514500  0.945100  0.344583
    H   H46   0.511900  0.848900  0.320500  0.110247
    H   H47   0.471900  0.603400  0.583000  0.387584
    H   H48   0.429800  0.929100  0.402700  0.105982
    H   H49   0.640200  0.004700  0.523100  0.076739
    H   H50   0.722100  0.930000  0.437800  0.109601
    H   H51   0.007200  0.835100  0.156100  0.149376
    H   H52   0.079200  0.900400  0.081200  0.084480
    H   H53   0.650600  0.639100  0.179100  -0.058184
    H   H54   0.763500  0.736600  0.035200  0.049466
    H   H55   0.708900  0.661900  0.927300  0.204505
    H   H56   0.583800  0.570400  0.076800  0.178230
    H   H57   0.580300  0.410200  0.867000  0.094164
    H   H58   0.507900  0.329600  0.779800  0.063094
    H   H59   0.427900  0.376600  0.655000  0.061453
    H   H60   0.512900  0.589600  0.703200  0.076396
    H   H61   0.410200  0.769500  0.375300  0.085370
    H   H62   0.476200  0.697300  0.488500  0.177298
    H   H63   0.295900  0.560400  0.442200  0.235038
    H   H64   0.238100  0.633900  0.328500  0.000220
    H   H65   0.864600  0.054800  0.996200  0.124843
    H   H66   0.791900  0.984800  0.067600  0.119084
    H   H67   0.914600  0.945100  0.514500  0.344573
    H   H68   0.988100  0.320500  0.848900  0.110240
    H   H69   0.028100  0.583000  0.603400  0.387589
    H   H70   0.070200  0.402700  0.929100  0.105977
    H   H71   0.859800  0.523100  0.004700  0.076746
    H   H72   0.777900  0.437800  0.930000  0.109606
    H   H73   0.492800  0.156100  0.835100  0.149422
    H   H74   0.420800  0.081200  0.900400  0.084439
    H   H75   0.849400  0.179100  0.639100  -0.058177
    H   H76   0.736500  0.035200  0.736600  0.049443
    H   H77   0.791100  0.927300  0.661900  0.204499
    H   H78   0.916200  0.076800  0.570400  0.178223
    H   H79   0.919700  0.867000  0.410200  0.094167
    H   H80   0.992100  0.779800  0.329600  0.063093
    H   H81   0.072100  0.655000  0.376600  0.061451
    H   H82   0.987100  0.703200  0.589600  0.076386
    H   H83   0.089800  0.375300  0.769500  0.085375
    H   H84   0.023800  0.488500  0.697300  0.177299
    H   H85   0.204100  0.442200  0.560400  0.235033
    H   H86   0.261900  0.328500  0.633900  0.000224
    H   H87   0.635400  0.996200  0.054800  0.124852
    H   H88   0.708100  0.067600  0.984800  0.119061
    C   C1    0.321440  0.163950  0.685650  0.655737
    C   C2    0.375000  0.117040  0.630400  -0.084154
    C   C3    0.461800  0.118190  0.639090  -0.075906
    C   C4    0.510130  0.071560  0.589040  -0.130610
    C   C5    0.473430  0.025470  0.526910  0.054442
    C   C6    0.386700  0.026420  0.518820  -0.128897
    C   C7    0.337600  0.071000  0.569400  -0.110067
    C   C8    0.161300  0.158220  0.855220  0.598409
    C   C9    0.023800  0.122940  0.879560  -0.165145
    C   C10   0.979900  0.078740  0.919580  -0.035019
    C   C11   0.338900  0.354400  0.873600  0.455133
    C   C12   0.272600  0.299330  0.956030  0.259875
    C   C13   0.305100  0.343660  0.021340  -0.402232
    C   C14   0.358100  0.395890  0.010750  0.637048
    C   C15   0.376700  0.397700  0.933500  -0.610913
    C   C16   0.405700  0.433240  0.151720  0.697667
    C   C17   0.450100  0.490880  0.205140  -0.258270
    C   C18   0.450200  0.569420  0.183980  -0.007999
    C   C19   0.493200  0.616610  0.235470  0.049052
    C   C20   0.539700  0.589630  0.310710  0.075881
    C   C21   0.537500  0.511730  0.334770  -0.328368
    C   C22   0.490700  0.462880  0.280880  0.016199
    C   C23   0.613700  0.274430  0.611370  0.165502
    C   C24   0.574500  0.316620  0.542980  -0.438083
    C   C25   0.608000  0.379180  0.519260  0.603249
    C   C26   0.678500  0.396330  0.569790  -0.516276
    C   C27   0.712700  0.351770  0.637870  0.396679
    C   C28   0.587300  0.485350  0.416530  0.765923
    C   C29   0.107800  0.106600  0.891000  -0.005009
    C   C30   0.013400  0.009200  0.959200  0.001086
    C   C31   0.105000  0.988900  0.970300  -0.127943
    C   C32   0.148600  0.033700  0.931700  -0.171181
    C   C33   0.178560  0.685650  0.163950  0.655733
    C   C34   0.125000  0.630400  0.117040  -0.084144
    C   C35   0.038200  0.639090  0.118190  -0.075899
    C   C36   0.989870  0.589040  0.071560  -0.130630
    C   C37   0.026570  0.526910  0.025470  0.054447
    C   C38   0.113300  0.518820  0.026420  -0.128880
    C   C39   0.162400  0.569400  0.071000  -0.110074
    C   C40   0.338700  0.855220  0.158220  0.598420
    C   C41   0.476200  0.879560  0.122940  -0.165325
    C   C42   0.520100  0.919580  0.078740  -0.034845
    C   C43   0.161100  0.873600  0.354400  0.455168
    C   C44   0.227400  0.956030  0.299330  0.259854
    C   C45   0.194900  0.021340  0.343660  -0.402205
    C   C46   0.141900  0.010750  0.395890  0.637020
    C   C47   0.123300  0.933500  0.397700  -0.610972
    C   C48   0.094300  0.151720  0.433240  0.697667
    C   C49   0.049900  0.205140  0.490880  -0.258299
    C   C50   0.049800  0.183980  0.569420  -0.007985
    C   C51   0.006800  0.235470  0.616610  0.049045
    C   C52   0.960300  0.310710  0.589630  0.075885
    C   C53   0.962500  0.334770  0.511730  -0.328377
    C   C54   0.009300  0.280880  0.462880  0.016221
    C   C55   0.886300  0.611370  0.274430  0.165485
    C   C56   0.925500  0.542980  0.316620  -0.438085
    C   C57   0.892000  0.519260  0.379180  0.603251
    C   C58   0.821500  0.569790  0.396330  -0.516272
    C   C59   0.787300  0.637870  0.351770  0.396664
    C   C60   0.912700  0.416530  0.485350  0.765930
    C   C61   0.392200  0.891000  0.106600  -0.004956
    C   C62   0.486600  0.959200  0.009200  0.001043
    C   C63   0.395000  0.970300  0.988900  -0.127957
    C   C64   0.351400  0.931700  0.033700  -0.171178
    C   C65   0.678560  0.836050  0.314350  0.655734
    C   C66   0.625000  0.882960  0.369600  -0.084146
    C   C67   0.538200  0.881810  0.360910  -0.075903
    C   C68   0.489870  0.928440  0.410960  -0.130626
    C   C69   0.526570  0.974530  0.473090  0.054451
    C   C70   0.613300  0.973580  0.481180  -0.128885
    C   C71   0.662400  0.929000  0.430600  -0.110071
    C   C72   0.838700  0.841780  0.144780  0.598413
    C   C73   0.976200  0.877060  0.120440  -0.165152
    C   C74   0.020100  0.921260  0.080420  -0.035018
    C   C75   0.661100  0.645600  0.126400  0.455156
    C   C76   0.727400  0.700670  0.043970  0.259809
    C   C77   0.694900  0.656340  0.978660  -0.402181
    C   C78   0.641900  0.604110  0.989250  0.636994
    C   C79   0.623300  0.602300  0.066500  -0.610935
    C   C80   0.594300  0.566760  0.848280  0.697670
    C   C81   0.549900  0.509120  0.794860  -0.258301
    C   C82   0.549800  0.430580  0.816020  -0.007980
    C   C83   0.506800  0.383390  0.764530  0.049048
    C   C84   0.460300  0.410370  0.689290  0.075879
    C   C85   0.462500  0.488270  0.665230  -0.328371
    C   C86   0.509300  0.537120  0.719120  0.016214
    C   C87   0.386300  0.725570  0.388630  0.165489
    C   C88   0.425500  0.683380  0.457020  -0.438077
    C   C89   0.392000  0.620820  0.480740  0.603243
    C   C90   0.321500  0.603670  0.430210  -0.516275
    C   C91   0.287300  0.648230  0.362130  0.396675
    C   C92   0.412700  0.514650  0.583470  0.765925
    C   C93   0.892200  0.893400  0.109000  -0.005011
    C   C94   0.986600  0.990800  0.040800  0.001087
    C   C95   0.895000  0.011100  0.029700  -0.127929
    C   C96   0.851400  0.966300  0.068300  -0.171192
    C   C97   0.821440  0.314350  0.836050  0.655736
    C   C98   0.875000  0.369600  0.882960  -0.084151
    C   C99   0.961800  0.360910  0.881810  -0.075903
    C   C100  0.010130  0.410960  0.928440  -0.130612
    C   C101  0.973430  0.473090  0.974530  0.054438
    C   C102  0.886700  0.481180  0.973580  -0.128890
    C   C103  0.837600  0.430600  0.929000  -0.110070
    C   C104  0.661300  0.144780  0.841780  0.598415
    C   C105  0.523800  0.120440  0.877060  -0.165317
    C   C106  0.479900  0.080420  0.921260  -0.034845
    C   C107  0.838900  0.126400  0.645600  0.455144
    C   C108  0.772600  0.043970  0.700670  0.259920
    C   C109  0.805100  0.978660  0.656340  -0.402258
    C   C110  0.858100  0.989250  0.604110  0.637074
    C   C111  0.876700  0.066500  0.602300  -0.610950
    C   C112  0.905700  0.848280  0.566760  0.697665
    C   C113  0.950100  0.794860  0.509120  -0.258268
    C   C114  0.950200  0.816020  0.430580  -0.008004
    C   C115  0.993200  0.764530  0.383390  0.049048
    C   C116  0.039700  0.689290  0.410370  0.075889
    C   C117  0.037500  0.665230  0.488270  -0.328375
    C   C118  0.990700  0.719120  0.537120  0.016206
    C   C119  0.113700  0.388630  0.725570  0.165499
    C   C120  0.074500  0.457020  0.683380  -0.438092
    C   C121  0.108000  0.480740  0.620820  0.603257
    C   C122  0.178500  0.430210  0.603670  -0.516274
    C   C123  0.212700  0.362130  0.648230  0.396668
    C   C124  0.087300  0.583470  0.514650  0.765928
    C   C125  0.607800  0.109000  0.893400  -0.004954
    C   C126  0.513400  0.040800  0.990800  0.001042
    C   C127  0.605000  0.029700  0.011100  -0.127970
    C   C128  0.648600  0.068300  0.966300  -0.171166
    N   N1    0.288180  0.303450  0.881870  -0.471693
    N   N2    0.395700  0.444280  0.070780  -0.633793
    N   N3    0.682980  0.290790  0.660450  -0.426173
    N   N4    0.569300  0.418050  0.446910  -0.702635
    N   N5    0.211820  0.881870  0.303450  -0.471667
    N   N6    0.104300  0.070780  0.444280  -0.633762
    N   N7    0.817020  0.660450  0.290790  -0.426154
    N   N8    0.930700  0.446910  0.418050  -0.702650
    N   N9    0.711820  0.696550  0.118130  -0.471655
    N   N10   0.604300  0.555720  0.929220  -0.633770
    N   N11   0.317020  0.709210  0.339550  -0.426164
    N   N12   0.430700  0.581950  0.553090  -0.702642
    N   N13   0.788180  0.118130  0.696550  -0.471705
    N   N14   0.895700  0.929220  0.555720  -0.633785
    N   N15   0.182980  0.339550  0.709210  -0.426165
    N   N16   0.069300  0.553090  0.581950  -0.702644
    O   O1    0.353980  0.213820  0.735040  -0.544764
    O   O2    0.247070  0.152750  0.684250  -0.577848
    O   O3    0.122790  0.219870  0.815830  -0.554657
    O   O4    0.241130  0.134830  0.861170  -0.506642
    O   O5    0.382200  0.378910  0.180070  -0.524386
    O   O6    0.639800  0.521040  0.452700  -0.520540
    O   O7    0.146020  0.735040  0.213820  -0.544758
    O   O8    0.252930  0.684250  0.152750  -0.577846
    O   O9    0.377210  0.815830  0.219870  -0.554651
    O   O10   0.258870  0.861170  0.134830  -0.506647
    O   O11   0.117800  0.180070  0.378910  -0.524393
    O   O12   0.860200  0.452700  0.521040  -0.520542
    O   O13   0.646020  0.786180  0.264960  -0.544772
    O   O14   0.752930  0.847250  0.315750  -0.577841
    O   O15   0.877210  0.780130  0.184170  -0.554650
    O   O16   0.758870  0.865170  0.138830  -0.506638
    O   O17   0.617800  0.621090  0.819930  -0.524393
    O   O18   0.360200  0.478960  0.547300  -0.520541
    O   O19   0.853980  0.264960  0.786180  -0.544750
    O   O20   0.747070  0.315750  0.847250  -0.577853
    O   O21   0.622790  0.184170  0.780130  -0.554658
    O   O22   0.741130  0.138830  0.865170  -0.506651
    O   O23   0.882200  0.819930  0.621090  -0.524387
    O   O24   0.139800  0.547300  0.478960  -0.520541
