# Generated by REPEAT Assigner based on pymatgen
data_DB12-NIHBEM02_clean
_audit_creation_date              2022-05-24
_audit_creation_method            REPEAT_Assigner
_cell_length_a                    9.992200
_cell_length_b                    11.413600
_cell_length_c                    14.970700
_cell_angle_alpha                 91.121600
_cell_angle_beta                  90.000000
_cell_angle_gamma                 90.000000
_cell_volume                      1707.035908
_symmetry_space_group_name_H-M    P1
_symmetry_Int_Tables_number       1
loop_
    _symmetry_equiv_pos_site_id
    _symmetry_equiv_pos_as_xyz
    1  x,y,z
loop_
    _atom_site_type_symbol
    _atom_site_label
    _atom_site_fract_x
    _atom_site_fract_y
    _atom_site_fract_z
    _atom_type_partial_charge
    Fe  Fe1   0.924060  0.754820  0.133710  1.227524
    Fe  Fe2   0.884190  0.261320  0.692740  1.235380
    Fe  Fe3   0.424060  0.745180  0.366290  1.227502
    Fe  Fe4   0.384190  0.238680  0.807260  1.235327
    Fe  Fe5   0.075940  0.245180  0.866290  1.227524
    Fe  Fe6   0.115810  0.738680  0.307260  1.235414
    Fe  Fe7   0.575940  0.254820  0.633710  1.227508
    Fe  Fe8   0.615810  0.761320  0.192740  1.235307
    Fe  Fe9   0.000000  0.500000  0.000000  1.321059
    Fe  Fe10  0.500000  -0.000000  0.500000  1.320956
    Fe  Fe11  0.000000  0.000000  0.000000  1.323802
    Fe  Fe12  0.500000  0.500000  0.500000  1.323780
    H   H1    0.765000  0.859000  0.369000  -0.014289
    H   H2    0.054000  0.478000  0.259000  -0.045461
    H   H3    0.623000  0.558000  0.054000  0.000189
    H   H4    0.221000  0.974000  0.218000  -0.000675
    H   H5    0.146000  0.697000  0.926000  0.001499
    H   H6    0.710000  0.993000  0.020000  0.016645
    H   H7    0.265000  0.641000  0.131000  -0.014333
    H   H8    0.554000  0.022000  0.241000  -0.045453
    H   H9    0.123000  0.942000  0.446000  0.000166
    H   H10   0.721000  0.526000  0.282000  -0.000675
    H   H11   0.646000  0.803000  0.574000  0.001440
    H   H12   0.210000  0.507000  0.480000  0.016651
    H   H13   0.235000  0.141000  0.631000  -0.014310
    H   H14   0.946000  0.522000  0.741000  -0.045457
    H   H15   0.377000  0.442000  0.946000  0.000175
    H   H16   0.779000  0.026000  0.782000  -0.000664
    H   H17   0.854000  0.303000  0.074000  0.001504
    H   H18   0.290000  0.007000  0.980000  0.016635
    H   H19   0.735000  0.359000  0.869000  -0.014335
    H   H20   0.446000  0.978000  0.759000  -0.045439
    H   H21   0.877000  0.058000  0.554000  0.000183
    H   H22   0.279000  0.474000  0.718000  -0.000691
    H   H23   0.354000  0.197000  0.426000  0.001515
    H   H24   0.790000  0.493000  0.520000  0.016656
    C   C1    0.835400  0.827600  0.329500  0.706275
    C   C2    0.028200  0.517000  0.206400  0.746990
    C   C3    0.714700  0.570900  0.058300  0.609998
    C   C4    0.142500  0.947100  0.178700  0.614309
    C   C5    0.094800  0.742700  0.965200  0.689047
    C   C6    0.725500  0.933200  0.059500  0.631839
    C   C7    0.335400  0.672400  0.170500  0.706346
    C   C8    0.528200  0.983000  0.293600  0.746921
    C   C9    0.214700  0.929100  0.441700  0.610093
    C   C10   0.642500  0.552900  0.321300  0.614309
    C   C11   0.594800  0.757300  0.534800  0.689232
    C   C12   0.225500  0.566800  0.440500  0.631807
    C   C13   0.164600  0.172400  0.670500  0.706312
    C   C14   0.971800  0.483000  0.793600  0.747005
    C   C15   0.285300  0.429100  0.941700  0.610014
    C   C16   0.857500  0.052900  0.821300  0.614311
    C   C17   0.905200  0.257300  0.034800  0.689042
    C   C18   0.274500  0.066800  0.940500  0.631849
    C   C19   0.664600  0.327600  0.829500  0.706342
    C   C20   0.471800  0.017000  0.706400  0.746858
    C   C21   0.785300  0.070900  0.558300  0.609993
    C   C22   0.357500  0.447100  0.678700  0.614362
    C   C23   0.405200  0.242700  0.465200  0.689022
    C   C24   0.774500  0.433200  0.559500  0.631821
    O   O1    0.806850  0.807590  0.248390  -0.715194
    O   O2    0.946050  0.811300  0.365300  -0.625936
    O   O3    0.011830  0.626230  0.215530  -0.684880
    O   O4    0.016500  0.459420  0.136720  -0.657695
    O   O5    0.746050  0.652560  0.112760  -0.650709
    O   O6    0.791000  0.513480  0.010380  -0.586786
    O   O7    0.088310  0.848860  0.193160  -0.661409
    O   O8    0.117300  0.012620  0.116620  -0.610388
    O   O9    0.024940  0.686540  0.021640  -0.692357
    O   O10   0.102700  0.849180  0.959180  -0.634691
    O   O11   0.846790  0.898970  0.065270  -0.638248
    O   O12   0.628530  0.894170  0.100570  -0.583364
    O   O13   0.306850  0.692410  0.251610  -0.715257
    O   O14   0.446050  0.688700  0.134700  -0.625924
    O   O15   0.511830  0.873770  0.284470  -0.684773
    O   O16   0.516500  0.040580  0.363280  -0.657651
    O   O17   0.246050  0.847440  0.387240  -0.650782
    O   O18   0.291000  0.986520  0.489620  -0.586812
    O   O19   0.588310  0.651140  0.306840  -0.661377
    O   O20   0.617300  0.487380  0.383380  -0.610406
    O   O21   0.524940  0.813460  0.478360  -0.692503
    O   O22   0.602700  0.650820  0.540820  -0.634756
    O   O23   0.346790  0.601030  0.434730  -0.638176
    O   O24   0.128530  0.605830  0.399430  -0.583363
    O   O25   0.193150  0.192410  0.751610  -0.715192
    O   O26   0.053950  0.188700  0.634700  -0.625929
    O   O27   0.988170  0.373770  0.784470  -0.684882
    O   O28   0.983500  0.540580  0.863280  -0.657717
    O   O29   0.253950  0.347440  0.887240  -0.650714
    O   O30   0.209000  0.486520  0.989620  -0.586781
    O   O31   0.911690  0.151140  0.806840  -0.661424
    O   O32   0.882700  0.987380  0.883380  -0.610403
    O   O33   0.975060  0.313460  0.978360  -0.692344
    O   O34   0.897300  0.150820  0.040820  -0.634709
    O   O35   0.153210  0.101030  0.934730  -0.638274
    O   O36   0.371470  0.105830  0.899430  -0.583354
    O   O37   0.693150  0.307590  0.748390  -0.715223
    O   O38   0.553950  0.311300  0.865300  -0.625926
    O   O39   0.488170  0.126230  0.715530  -0.684809
    O   O40   0.483500  0.959420  0.636720  -0.657584
    O   O41   0.753950  0.152560  0.612760  -0.650735
    O   O42   0.709000  0.013480  0.510380  -0.586743
    O   O43   0.411690  0.348860  0.693160  -0.661421
    O   O44   0.382700  0.512620  0.616620  -0.610424
    O   O45   0.475060  0.186540  0.521640  -0.692324
    O   O46   0.397300  0.349180  0.459180  -0.634713
    O   O47   0.653210  0.398970  0.565270  -0.638223
    O   O48   0.871470  0.394170  0.600570  -0.583369
