# Generated by REPEAT Assigner based on pymatgen
data_DB12-FIQYUA_clean
_audit_creation_date              2022-05-24
_audit_creation_method            REPEAT_Assigner
_cell_length_a                    9.833500
_cell_length_b                    11.272700
_cell_length_c                    14.424900
_cell_angle_alpha                 91.242000
_cell_angle_beta                  90.000000
_cell_angle_gamma                 90.000000
_cell_volume                      1598.625878
_symmetry_space_group_name_H-M    P1
_symmetry_Int_Tables_number       1
loop_
    _symmetry_equiv_pos_site_id
    _symmetry_equiv_pos_as_xyz
    1  x,y,z
loop_
    _atom_site_type_symbol
    _atom_site_label
    _atom_site_fract_x
    _atom_site_fract_y
    _atom_site_fract_z
    _atom_type_partial_charge
    Co  Co1   0.919330  0.755320  0.632850  1.066515
    Co  Co2   0.609290  0.760080  0.688770  1.162881
    Co  Co3   0.419330  0.744680  0.867150  1.066577
    Co  Co4   0.109290  0.739920  0.811230  1.162887
    Co  Co5   0.080670  0.244680  0.367150  1.066600
    Co  Co6   0.390710  0.239920  0.311230  1.162884
    Co  Co7   0.580670  0.255320  0.132850  1.066522
    Co  Co8   0.890710  0.260080  0.188770  1.162958
    Co  Co9   0.000000  0.500000  0.500000  1.194637
    Co  Co10  0.500000  0.000000  0.000000  1.194621
    Co  Co11  0.000000  -0.000000  0.500000  1.216955
    Co  Co12  0.500000  0.500000  0.000000  1.216941
    H   H1    0.164000  0.701000  0.432000  0.005518
    H   H2    0.714000  0.989000  0.504000  0.039920
    H   H3    0.758000  0.859000  0.865000  -0.050948
    H   H4    0.623000  0.554000  0.541000  0.010388
    H   H5    0.189000  0.982000  0.744000  -0.003001
    H   H6    0.039000  0.484000  0.758000  -0.041326
    H   H7    0.664000  0.799000  0.068000  0.005489
    H   H8    0.214000  0.511000  0.996000  0.039954
    H   H9    0.258000  0.641000  0.635000  -0.050963
    H   H10   0.123000  0.946000  0.959000  0.010380
    H   H11   0.689000  0.518000  0.756000  -0.003035
    H   H12   0.539000  0.016000  0.742000  -0.041254
    H   H13   0.836000  0.299000  0.568000  0.005481
    H   H14   0.286000  0.011000  0.496000  0.039924
    H   H15   0.242000  0.141000  0.135000  -0.050951
    H   H16   0.377000  0.446000  0.459000  0.010373
    H   H17   0.811000  0.018000  0.256000  -0.003039
    H   H18   0.961000  0.516000  0.242000  -0.041271
    H   H19   0.336000  0.201000  0.932000  0.005519
    H   H20   0.786000  0.489000  0.004000  0.039912
    H   H21   0.742000  0.359000  0.365000  -0.050960
    H   H22   0.877000  0.054000  0.041000  0.010362
    H   H23   0.311000  0.482000  0.244000  -0.003003
    H   H24   0.461000  0.984000  0.258000  -0.041329
    C   C1    0.108600  0.742400  0.471300  0.670727
    C   C2    0.720500  0.926600  0.547800  0.541511
    C   C3    0.827600  0.832200  0.830100  0.791483
    C   C4    0.711300  0.575000  0.547500  0.604315
    C   C5    0.125600  0.955900  0.689100  0.608013
    C   C6    0.013400  0.516700  0.712300  0.721569
    C   C7    0.608600  0.757600  0.028700  0.670787
    C   C8    0.220500  0.573400  0.952200  0.541514
    C   C9    0.327600  0.667800  0.669900  0.791572
    C   C10   0.211300  0.925000  0.952500  0.604327
    C   C11   0.625600  0.544100  0.810900  0.608103
    C   C12   0.513400  0.983300  0.787700  0.721439
    C   C13   0.891400  0.257600  0.528700  0.670820
    C   C14   0.279500  0.073400  0.452200  0.541540
    C   C15   0.172400  0.167800  0.169900  0.791537
    C   C16   0.288700  0.425000  0.452500  0.604334
    C   C17   0.874400  0.044100  0.310900  0.608115
    C   C18   0.986600  0.483300  0.287700  0.721491
    C   C19   0.391400  0.242400  0.971300  0.670729
    C   C20   0.779500  0.426600  0.047800  0.541574
    C   C21   0.672400  0.332200  0.330100  0.791499
    C   C22   0.788700  0.075000  0.047500  0.604365
    C   C23   0.374400  0.455900  0.189100  0.608012
    C   C24   0.486600  0.016700  0.212300  0.721570
    O   O1    0.027500  0.685000  0.523510  -0.624326
    O   O2    0.116900  0.851200  0.467800  -0.604024
    O   O3    0.844300  0.896300  0.558650  -0.534924
    O   O4    0.621300  0.886600  0.589900  -0.565155
    O   O5    0.799000  0.810500  0.745210  -0.697318
    O   O6    0.938300  0.816300  0.867980  -0.668364
    O   O7    0.742000  0.652900  0.608800  -0.579522
    O   O8    0.791700  0.517600  0.498300  -0.576428
    O   O9    0.083200  0.850300  0.695280  -0.606599
    O   O10   0.099300  0.025300  0.626000  -0.615888
    O   O11   0.003100  0.628700  0.719480  -0.636962
    O   O12   0.998000  0.456900  0.640700  -0.623842
    O   O13   0.527500  0.815000  0.976490  -0.624327
    O   O14   0.616900  0.648800  0.032200  -0.604062
    O   O15   0.344300  0.603700  0.941350  -0.535030
    O   O16   0.121300  0.613400  0.910100  -0.565112
    O   O17   0.299000  0.689500  0.754790  -0.697397
    O   O18   0.438300  0.683700  0.632020  -0.668379
    O   O19   0.242000  0.847100  0.891200  -0.579499
    O   O20   0.291700  0.982400  0.001700  -0.576454
    O   O21   0.583200  0.649700  0.804720  -0.606627
    O   O22   0.599300  0.474700  0.874000  -0.615924
    O   O23   0.503100  0.871300  0.780520  -0.636922
    O   O24   0.498000  0.043100  0.859300  -0.623816
    O   O25   0.972500  0.315000  0.476490  -0.624348
    O   O26   0.883100  0.148800  0.532200  -0.604078
    O   O27   0.155700  0.103700  0.441350  -0.535036
    O   O28   0.378700  0.113400  0.410100  -0.565122
    O   O29   0.201000  0.189500  0.254790  -0.697390
    O   O30   0.061700  0.183700  0.132020  -0.668356
    O   O31   0.258000  0.347100  0.391200  -0.579513
    O   O32   0.208300  0.482400  0.501700  -0.576447
    O   O33   0.916800  0.149700  0.304720  -0.606670
    O   O34   0.900700  0.974700  0.374000  -0.615924
    O   O35   0.996900  0.371300  0.280520  -0.636947
    O   O36   0.002000  0.543100  0.359300  -0.623839
    O   O37   0.472500  0.185000  0.023510  -0.624336
    O   O38   0.383100  0.351200  0.967800  -0.604031
    O   O39   0.655700  0.396300  0.058650  -0.534929
    O   O40   0.878700  0.386600  0.089900  -0.565244
    O   O41   0.701000  0.310500  0.245210  -0.697330
    O   O42   0.561700  0.316300  0.367980  -0.668362
    O   O43   0.758000  0.152900  0.108800  -0.579560
    O   O44   0.708300  0.017600  0.998300  -0.576433
    O   O45   0.416800  0.350300  0.195280  -0.606590
    O   O46   0.400700  0.525300  0.126000  -0.615894
    O   O47   0.496900  0.128700  0.219480  -0.636956
    O   O48   0.502000  0.956900  0.140700  -0.623832
