# Generated by REPEAT Assigner based on pymatgen
data_DB12-VEDFAN_freeONLY
_audit_creation_date              2022-05-24
_audit_creation_method            REPEAT_Assigner
_cell_length_a                    11.439800
_cell_length_b                    13.295500
_cell_length_c                    26.248300
_cell_angle_alpha                 90.000000
_cell_angle_beta                  90.000000
_cell_angle_gamma                 90.000000
_cell_volume                      3992.310282
_symmetry_space_group_name_H-M    P1
_symmetry_Int_Tables_number       1
loop_
    _symmetry_equiv_pos_site_id
    _symmetry_equiv_pos_as_xyz
    1  x,y,z
loop_
    _atom_site_type_symbol
    _atom_site_label
    _atom_site_fract_x
    _atom_site_fract_y
    _atom_site_fract_z
    _atom_type_partial_charge
    Co  Co1  0.574160  0.442240  0.137050  1.018543
    Co  Co2  0.317970  0.562460  0.080000  1.036662
    Co  Co3  0.925840  0.557760  0.637050  1.018574
    Co  Co4  0.182030  0.437540  0.580000  1.036709
    Co  Co5  0.425840  0.942240  0.362950  1.018565
    Co  Co6  0.682030  0.062460  0.420000  1.036693
    Co  Co7  0.074160  0.057760  0.862950  1.018567
    Co  Co8  0.817970  0.937540  0.920000  1.036722
    H   H1   0.344200  0.408900  0.144100  0.388638
    H   H2   0.383700  0.371500  0.090100  0.407372
    H   H3   0.765200  0.605000  0.149800  0.078700
    H   H4   0.965500  0.620900  0.146300  0.146932
    H   H5   0.990100  0.324700  0.168500  0.132739
    H   H6   0.788600  0.315900  0.166000  0.063377
    H   H7   0.868200  0.083600  0.010400  0.074933
    H   H8   0.782500  0.206100  0.059300  0.158851
    H   H9   0.475000  0.131400  0.998600  0.135227
    H   H10  0.567500  0.006800  0.953800  0.026957
    H   H11  0.365200  0.818000  0.182700  0.149126
    H   H12  0.366800  0.927500  0.249800  0.034772
    H   H13  0.531000  0.734900  0.334600  -0.005798
    H   H14  0.542300  0.621800  0.269500  0.191067
    H   H15  0.756600  0.682600  0.060300  0.153284
    H   H16  0.841400  0.811800  0.016500  0.055096
    H   H17  0.626100  0.775300  0.903700  0.049862
    H   H18  0.526200  0.654900  0.947400  0.137281
    H   H19  0.155800  0.591100  0.644100  0.388704
    H   H20  0.116300  0.628500  0.590100  0.407413
    H   H21  0.734800  0.395000  0.649800  0.078701
    H   H22  0.534500  0.379100  0.646300  0.146938
    H   H23  0.509900  0.675300  0.668500  0.132774
    H   H24  0.711400  0.684100  0.666000  0.063357
    H   H25  0.631800  0.916400  0.510400  0.074940
    H   H26  0.717500  0.793900  0.559300  0.158845
    H   H27  0.025000  0.868600  0.498600  0.135256
    H   H28  0.932500  0.993200  0.453800  0.026980
    H   H29  0.134800  0.182000  0.682700  0.149120
    H   H30  0.133200  0.072500  0.749800  0.034778
    H   H31  0.969000  0.265100  0.834600  -0.005787
    H   H32  0.957700  0.378200  0.769500  0.191060
    H   H33  0.743400  0.317400  0.560300  0.153230
    H   H34  0.658600  0.188200  0.516500  0.055121
    H   H35  0.873900  0.224700  0.403700  0.049872
    H   H36  0.973800  0.345100  0.447400  0.137259
    H   H37  0.655800  0.908900  0.355900  0.388631
    H   H38  0.616300  0.871500  0.409900  0.407405
    H   H39  0.234800  0.105000  0.350200  0.078692
    H   H40  0.034500  0.120900  0.353700  0.146939
    H   H41  0.009900  0.824700  0.331500  0.132736
    H   H42  0.211400  0.815900  0.334000  0.063373
    H   H43  0.131800  0.583600  0.489600  0.074954
    H   H44  0.217500  0.706100  0.440700  0.158836
    H   H45  0.525000  0.631400  0.501400  0.135250
    H   H46  0.432500  0.506800  0.546200  0.026952
    H   H47  0.634800  0.318000  0.317300  0.149132
    H   H48  0.633200  0.427500  0.250200  0.034769
    H   H49  0.469000  0.234900  0.165400  -0.005806
    H   H50  0.457700  0.121800  0.230500  0.191070
    H   H51  0.243400  0.182600  0.439700  0.153279
    H   H52  0.158600  0.311800  0.483500  0.055097
    H   H53  0.373900  0.275300  0.596300  0.049817
    H   H54  0.473800  0.154900  0.552600  0.137353
    H   H55  0.844200  0.091100  0.855900  0.388646
    H   H56  0.883700  0.128500  0.909900  0.407421
    H   H57  0.265200  0.895000  0.850200  0.078687
    H   H58  0.465500  0.879100  0.853700  0.146942
    H   H59  0.490100  0.175300  0.831500  0.132734
    H   H60  0.288600  0.184100  0.834000  0.063369
    H   H61  0.368200  0.416400  0.989600  0.074946
    H   H62  0.282500  0.293900  0.940700  0.158836
    H   H63  0.975000  0.368600  0.001400  0.135253
    H   H64  0.067500  0.493200  0.046200  0.026973
    H   H65  0.865200  0.682000  0.817300  0.149134
    H   H66  0.866800  0.572500  0.750200  0.034761
    H   H67  0.031000  0.765100  0.665400  -0.005812
    H   H68  0.042300  0.878200  0.730500  0.191064
    H   H69  0.256600  0.817400  0.939700  0.153212
    H   H70  0.341400  0.688200  0.983500  0.055168
    H   H71  0.126100  0.724700  0.096300  0.049860
    H   H72  0.026200  0.845100  0.052600  0.137292
    C   C1   0.811100  0.547300  0.151840  0.119133
    C   C2   0.931600  0.557800  0.150350  -0.259836
    C   C3   0.000200  0.473400  0.154910  0.090577
    C   C4   0.946200  0.382400  0.162810  -0.207974
    C   C5   0.824600  0.378100  0.162090  0.124756
    C   C6   0.133400  0.477300  0.148780  0.641098
    C   C7   0.787900  0.093300  0.007860  0.201453
    C   C8   0.736800  0.167400  0.037470  -0.269704
    C   C9   0.618000  0.183700  0.034430  0.069622
    C   C10  0.555300  0.122800  0.001950  -0.241249
    C   C11  0.611900  0.049000  0.974430  0.228537
    C   C12  0.557200  0.264700  0.064740  0.660166
    C   C13  0.460700  0.632900  0.174200  0.746921
    C   C14  0.454400  0.706900  0.217800  0.094113
    C   C15  0.400900  0.799700  0.213120  -0.282962
    C   C16  0.401100  0.864600  0.253920  0.233414
    C   C17  0.498200  0.752200  0.303390  0.343363
    C   C18  0.504800  0.683200  0.264620  -0.365918
    C   C19  0.562000  0.580600  0.041970  0.656685
    C   C20  0.627700  0.656300  0.009870  0.031215
    C   C21  0.725800  0.702700  0.029100  -0.248247
    C   C22  0.777900  0.778800  0.001980  0.144412
    C   C23  0.650800  0.758800  0.936400  0.192224
    C   C24  0.591200  0.685200  0.962160  -0.208857
    C   C25  0.688900  0.452700  0.651840  0.119147
    C   C26  0.568400  0.442200  0.650350  -0.259867
    C   C27  0.499800  0.526600  0.654910  0.090708
    C   C28  0.553800  0.617600  0.662810  -0.208083
    C   C29  0.675400  0.621900  0.662090  0.124837
    C   C30  0.366600  0.522700  0.648780  0.640960
    C   C31  0.712100  0.906700  0.507860  0.201433
    C   C32  0.763200  0.832600  0.537470  -0.269677
    C   C33  0.882000  0.816300  0.534430  0.069580
    C   C34  0.944700  0.877200  0.501950  -0.241200
    C   C35  0.888100  0.951000  0.474430  0.228410
    C   C36  0.942800  0.735300  0.564740  0.660198
    C   C37  0.039300  0.367100  0.674200  0.746906
    C   C38  0.045600  0.293100  0.717800  0.094115
    C   C39  0.099100  0.200300  0.713120  -0.282966
    C   C40  0.098900  0.135400  0.753920  0.233411
    C   C41  0.001800  0.247800  0.803390  0.343333
    C   C42  0.995200  0.316800  0.764620  -0.365896
    C   C43  0.938000  0.419400  0.541970  0.656839
    C   C44  0.872300  0.343700  0.509870  0.030943
    C   C45  0.774200  0.297300  0.529100  -0.248030
    C   C46  0.722100  0.221200  0.501980  0.144275
    C   C47  0.849200  0.241200  0.436400  0.192105
    C   C48  0.908800  0.314800  0.462160  -0.208673
    C   C49  0.188900  0.047300  0.348160  0.119155
    C   C50  0.068400  0.057800  0.349650  -0.259851
    C   C51  0.999800  0.973400  0.345090  0.090571
    C   C52  0.053800  0.882400  0.337190  -0.207965
    C   C53  0.175400  0.878100  0.337910  0.124765
    C   C54  0.866600  0.977300  0.351220  0.641107
    C   C55  0.212100  0.593300  0.492140  0.201443
    C   C56  0.263200  0.667400  0.462530  -0.269672
    C   C57  0.382000  0.683700  0.465570  0.069568
    C   C58  0.444700  0.622800  0.498050  -0.241198
    C   C59  0.388100  0.549000  0.525570  0.228459
    C   C60  0.442800  0.764700  0.435260  0.660197
    C   C61  0.539300  0.132900  0.325800  0.746935
    C   C62  0.545600  0.206900  0.282200  0.094112
    C   C63  0.599100  0.299700  0.286880  -0.282967
    C   C64  0.598900  0.364600  0.246080  0.233419
    C   C65  0.501800  0.252200  0.196610  0.343380
    C   C66  0.495200  0.183200  0.235380  -0.365925
    C   C67  0.438000  0.080600  0.458030  0.656714
    C   C68  0.372300  0.156300  0.490130  0.031204
    C   C69  0.274200  0.202700  0.470900  -0.248230
    C   C70  0.222100  0.278800  0.498020  0.144438
    C   C71  0.349200  0.258800  0.563600  0.192332
    C   C72  0.408800  0.185200  0.537840  -0.208960
    C   C73  0.311100  0.952700  0.848160  0.119176
    C   C74  0.431600  0.942200  0.849650  -0.259850
    C   C75  0.500200  0.026600  0.845090  0.090555
    C   C76  0.446200  0.117600  0.837190  -0.207967
    C   C77  0.324600  0.121900  0.837910  0.124781
    C   C78  0.633400  0.022700  0.851220  0.641122
    C   C79  0.287900  0.406700  0.992140  0.201397
    C   C80  0.236800  0.332600  0.962530  -0.269651
    C   C81  0.118000  0.316300  0.965570  0.069569
    C   C82  0.055300  0.377200  0.998050  -0.241201
    C   C83  0.111900  0.451000  0.025570  0.228415
    C   C84  0.057200  0.235300  0.935260  0.660202
    C   C85  0.960700  0.867100  0.825800  0.746942
    C   C86  0.954400  0.793100  0.782200  0.094105
    C   C87  0.900900  0.700300  0.786880  -0.282979
    C   C88  0.901100  0.635400  0.746080  0.233449
    C   C89  0.998200  0.747800  0.696610  0.343388
    C   C90  0.004800  0.816800  0.735380  -0.365910
    C   C91  0.062000  0.919400  0.958030  0.656667
    C   C92  0.127700  0.843700  0.990130  0.030991
    C   C93  0.225800  0.797300  0.970900  -0.247975
    C   C94  0.277900  0.721200  0.998020  0.144191
    C   C95  0.150800  0.741200  0.063600  0.192160
    C   C96  0.091200  0.814800  0.037840  -0.208739
    N   N1   0.757900  0.458800  0.156090  -0.228401
    N   N2   0.727600  0.035400  0.975990  -0.380766
    N   N3   0.741900  0.808000  0.955570  -0.298785
    N   N4   0.448000  0.842210  0.299450  -0.406540
    N   N5   0.742100  0.541200  0.656090  -0.228445
    N   N6   0.772400  0.964600  0.475990  -0.380681
    N   N7   0.758100  0.192000  0.455570  -0.298665
    N   N8   0.052000  0.157790  0.799450  -0.406524
    N   N9   0.242100  0.958800  0.343910  -0.228424
    N   N10  0.272400  0.535400  0.524010  -0.380707
    N   N11  0.258100  0.308000  0.544430  -0.298835
    N   N12  0.552000  0.342210  0.200550  -0.406551
    N   N13  0.257900  0.041200  0.843910  -0.228446
    N   N14  0.227600  0.464600  0.024010  -0.380651
    N   N15  0.241900  0.692000  0.044430  -0.298671
    N   N16  0.948000  0.657790  0.700550  -0.406582
    O   O1   0.390270  0.426340  0.114310  -0.694159
    O   O2   0.527830  0.560020  0.181410  -0.657887
    O   O3   0.398720  0.651150  0.135970  -0.654951
    O   O4   0.615730  0.539640  0.077000  -0.539986
    O   O5   0.455880  0.568010  0.030070  -0.611577
    O   O6   0.171760  0.553410  0.126420  -0.578196
    O   O7   0.190900  0.404200  0.163720  -0.648767
    O   O8   0.450000  0.271800  0.059670  -0.594964
    O   O9   0.620600  0.318580  0.092610  -0.631639
    O   O10  0.109730  0.573660  0.614310  -0.694245
    O   O11  0.972170  0.439980  0.681410  -0.657888
    O   O12  0.101280  0.348850  0.635970  -0.654934
    O   O13  0.884270  0.460360  0.577000  -0.540024
    O   O14  0.044120  0.431990  0.530070  -0.611656
    O   O15  0.328240  0.446590  0.626420  -0.578131
    O   O16  0.309100  0.595800  0.663720  -0.648774
    O   O17  0.050000  0.728200  0.559670  -0.595012
    O   O18  0.879400  0.681420  0.592610  -0.631642
    O   O19  0.609730  0.926340  0.385690  -0.694185
    O   O20  0.472170  0.060020  0.318590  -0.657896
    O   O21  0.601280  0.151150  0.364030  -0.654966
    O   O22  0.384270  0.039640  0.423000  -0.539998
    O   O23  0.544120  0.068010  0.469930  -0.611613
    O   O24  0.828240  0.053410  0.373580  -0.578199
    O   O25  0.809100  0.904200  0.336280  -0.648764
    O   O26  0.550000  0.771800  0.440330  -0.595010
    O   O27  0.379400  0.818580  0.407390  -0.631636
    O   O28  0.890270  0.073660  0.885690  -0.694237
    O   O29  0.027830  0.939980  0.818590  -0.657905
    O   O30  0.898720  0.848850  0.864030  -0.654956
    O   O31  0.115730  0.960360  0.923000  -0.539960
    O   O32  0.955880  0.931990  0.969930  -0.611543
    O   O33  0.671760  0.946590  0.873580  -0.578216
    O   O34  0.690900  0.095800  0.836280  -0.648764
    O   O35  0.950000  0.228200  0.940330  -0.595010
    O   O36  0.120600  0.181420  0.907390  -0.631635
