# Generated by REPEAT Assigner based on pymatgen
data_DB12-CUNWEO_clean
_audit_creation_date              2022-05-24
_audit_creation_method            REPEAT_Assigner
_cell_length_a                    8.393000
_cell_length_b                    18.742100
_cell_length_c                    22.235100
_cell_angle_alpha                 90.000000
_cell_angle_beta                  90.000000
_cell_angle_gamma                 94.031000
_cell_volume                      3488.983019
_symmetry_space_group_name_H-M    P1
_symmetry_Int_Tables_number       1
loop_
    _symmetry_equiv_pos_site_id
    _symmetry_equiv_pos_as_xyz
    1  x,y,z
loop_
    _atom_site_type_symbol
    _atom_site_label
    _atom_site_fract_x
    _atom_site_fract_y
    _atom_site_fract_z
    _atom_type_partial_charge
    Cd  Cd1   0.684240  0.012880  0.443040  1.323253
    Cd  Cd2   0.315760  0.487120  0.943040  1.324255
    Cd  Cd3   0.315760  0.987120  0.556960  1.324259
    Cd  Cd4   0.684240  0.512880  0.056960  1.323252
    H   H1    0.058000  0.167200  0.453300  0.148737
    H   H2    0.999200  0.253400  0.380200  0.111636
    H   H3    0.487300  0.142800  0.374200  0.184713
    H   H4    0.415300  0.505100  0.158900  0.071862
    H   H5    0.305500  0.433800  0.236000  0.219677
    H   H6    0.549600  0.272200  0.167800  0.206825
    H   H7    0.655500  0.351500  0.096400  0.016756
    H   H8    0.132000  0.026000  0.305800  0.076881
    H   H9    0.293700  0.068800  0.224200  0.091529
    H   H10   0.797900  0.164800  0.264900  0.118141
    H   H11   0.317600  0.319100  0.959900  0.013977
    H   H12   0.252100  0.226700  0.026700  0.243231
    H   H13   0.037100  0.369700  0.131400  0.222067
    H   H14   0.109600  0.454700  0.061400  0.023841
    H   H15   0.942000  0.332800  0.953300  0.148802
    H   H16   0.000800  0.246600  0.880200  0.111640
    H   H17   0.512700  0.357200  0.874200  0.184742
    H   H18   0.584700  0.994900  0.658900  0.071623
    H   H19   0.694500  0.066200  0.736000  0.219794
    H   H20   0.450400  0.227800  0.667800  0.206921
    H   H21   0.344500  0.148500  0.596400  0.016547
    H   H22   0.868000  0.474000  0.805800  0.076871
    H   H23   0.706300  0.431200  0.724200  0.091546
    H   H24   0.202100  0.335200  0.764900  0.118198
    H   H25   0.682400  0.180900  0.459900  0.014136
    H   H26   0.747900  0.273300  0.526700  0.243223
    H   H27   0.962900  0.130300  0.631400  0.222043
    H   H28   0.890400  0.045300  0.561400  0.023992
    H   H29   0.942000  0.832800  0.546700  0.148799
    H   H30   0.000800  0.746600  0.619800  0.111629
    H   H31   0.512700  0.857200  0.625800  0.184757
    H   H32   0.584700  0.494900  0.841100  0.071633
    H   H33   0.694500  0.566200  0.764000  0.219775
    H   H34   0.450400  0.727800  0.832200  0.206876
    H   H35   0.344500  0.648500  0.903600  0.016549
    H   H36   0.868000  0.974000  0.694200  0.076875
    H   H37   0.706300  0.931200  0.775800  0.091540
    H   H38   0.202100  0.835200  0.735100  0.118226
    H   H39   0.682400  0.680900  0.040100  0.014132
    H   H40   0.747900  0.773300  0.973300  0.243233
    H   H41   0.962900  0.630300  0.868600  0.222037
    H   H42   0.890400  0.545300  0.938600  0.024014
    H   H43   0.058000  0.667200  0.046700  0.148738
    H   H44   0.999200  0.753400  0.119800  0.111644
    H   H45   0.487300  0.642800  0.125800  0.184690
    H   H46   0.415300  0.005100  0.341100  0.071867
    H   H47   0.305500  0.933800  0.264000  0.219676
    H   H48   0.549600  0.772200  0.332200  0.206825
    H   H49   0.655500  0.851500  0.403600  0.016752
    H   H50   0.132000  0.526000  0.194200  0.076877
    H   H51   0.293700  0.568800  0.275800  0.091565
    H   H52   0.797900  0.664800  0.235100  0.118140
    H   H53   0.317600  0.819100  0.540100  0.013977
    H   H54   0.252100  0.726700  0.473300  0.243225
    H   H55   0.037100  0.869700  0.368600  0.222075
    H   H56   0.109600  0.954700  0.438600  0.023829
    C   C1    0.306400  0.090200  0.465800  0.741269
    C   C2    0.275400  0.147000  0.419900  -0.038753
    C   C3    0.132900  0.179800  0.422400  -0.121973
    C   C4    0.098100  0.231700  0.379600  -0.069388
    C   C5    0.211000  0.249700  0.337300  -0.069546
    C   C6    0.353900  0.218000  0.336000  -0.097415
    C   C7    0.389600  0.165300  0.376200  -0.087502
    C   C8    0.451400  0.248300  0.285700  0.473466
    C   C9    0.209900  0.301800  0.286500  0.556896
    C   C10   0.443800  0.457000  0.161600  0.223269
    C   C11   0.376400  0.415300  0.207600  -0.438105
    C   C12   0.417700  0.344700  0.210100  0.385980
    C   C13   0.521300  0.320400  0.167600  -0.275058
    C   C14   0.582100  0.367900  0.124900  0.279686
    C   C15   0.856800  0.064000  0.346700  0.721618
    C   C16   0.953800  0.091400  0.293400  -0.088962
    C   C17   0.097700  0.063300  0.281100  0.018437
    C   C18   0.195200  0.088500  0.233100  -0.045826
    C   C19   0.139000  0.144100  0.199300  -0.231027
    C   C20   0.994100  0.171200  0.211800  -0.063965
    C   C21   0.898400  0.146100  0.257500  -0.022729
    C   C22   0.216300  0.183300  0.148200  0.687425
    C   C23   0.970400  0.229800  0.167500  0.546569
    C   C24   0.262000  0.329300  0.995700  0.443993
    C   C25   0.223700  0.273800  0.035200  -0.586116
    C   C26   0.142500  0.288900  0.087900  0.478329
    C   C27   0.097000  0.357800  0.097000  -0.379396
    C   C28   0.141300  0.407600  0.054800  0.461465
    C   C29   0.693600  0.409800  0.965800  0.740704
    C   C30   0.724600  0.353000  0.919900  -0.038573
    C   C31   0.867100  0.320200  0.922400  -0.122112
    C   C32   0.901900  0.268300  0.879600  -0.069358
    C   C33   0.789000  0.250300  0.837300  -0.069572
    C   C34   0.646100  0.282000  0.836000  -0.097424
    C   C35   0.610400  0.334700  0.876200  -0.087488
    C   C36   0.548600  0.251700  0.785700  0.473501
    C   C37   0.790100  0.198200  0.786500  0.556945
    C   C38   0.556200  0.043000  0.661600  0.224295
    C   C39   0.623600  0.084700  0.707600  -0.438707
    C   C40   0.582300  0.155300  0.710100  0.386474
    C   C41   0.478700  0.179600  0.667600  -0.275703
    C   C42   0.417900  0.132100  0.624900  0.280749
    C   C43   0.143200  0.436000  0.846700  0.722170
    C   C44   0.046200  0.408600  0.793400  -0.089117
    C   C45   0.902300  0.436700  0.781100  0.018500
    C   C46   0.804800  0.411500  0.733100  -0.045889
    C   C47   0.861000  0.355900  0.699300  -0.230964
    C   C48   0.005900  0.328800  0.711800  -0.063978
    C   C49   0.101600  0.353900  0.757500  -0.022767
    C   C50   0.783700  0.316700  0.648200  0.687437
    C   C51   0.029600  0.270200  0.667500  0.546566
    C   C52   0.738000  0.170700  0.495700  0.443390
    C   C53   0.776300  0.226200  0.535200  -0.585924
    C   C54   0.857500  0.211100  0.587900  0.478172
    C   C55   0.903000  0.142200  0.597000  -0.379100
    C   C56   0.858700  0.092400  0.554800  0.460945
    C   C57   0.693600  0.909800  0.534200  0.740705
    C   C58   0.724600  0.853000  0.580100  -0.038564
    C   C59   0.867100  0.820200  0.577600  -0.122131
    C   C60   0.901900  0.768300  0.620400  -0.069326
    C   C61   0.789000  0.750300  0.662700  -0.069590
    C   C62   0.646100  0.782000  0.664000  -0.097424
    C   C63   0.610400  0.834700  0.623800  -0.087496
    C   C64   0.548600  0.751700  0.714300  0.473502
    C   C65   0.790100  0.698200  0.713500  0.556936
    C   C66   0.556200  0.543000  0.838400  0.224217
    C   C67   0.623600  0.584700  0.792400  -0.438610
    C   C68   0.582300  0.655300  0.789900  0.386324
    C   C69   0.478700  0.679600  0.832400  -0.275539
    C   C70   0.417900  0.632100  0.875100  0.280690
    C   C71   0.143200  0.936000  0.653300  0.722167
    C   C72   0.046200  0.908600  0.706600  -0.089082
    C   C73   0.902300  0.936700  0.718900  0.018476
    C   C74   0.804800  0.911500  0.766900  -0.045872
    C   C75   0.861000  0.855900  0.800700  -0.230968
    C   C76   0.005900  0.828800  0.788200  -0.063966
    C   C77   0.101600  0.853900  0.742500  -0.022811
    C   C78   0.783700  0.816700  0.851800  0.687419
    C   C79   0.029600  0.770200  0.832500  0.546573
    C   C80   0.738000  0.670700  0.004300  0.443401
    C   C81   0.776300  0.726200  0.964800  -0.585943
    C   C82   0.857500  0.711100  0.912100  0.478158
    C   C83   0.903000  0.642200  0.903000  -0.379062
    C   C84   0.858700  0.592400  0.945200  0.460895
    C   C85   0.306400  0.590200  0.034200  0.741298
    C   C86   0.275400  0.647000  0.080100  -0.038811
    C   C87   0.132900  0.679800  0.077600  -0.121925
    C   C88   0.098100  0.731700  0.120400  -0.069440
    C   C89   0.211000  0.749700  0.162700  -0.069475
    C   C90   0.353900  0.718000  0.164000  -0.097521
    C   C91   0.389600  0.665300  0.123800  -0.087404
    C   C92   0.451400  0.748300  0.214300  0.473486
    C   C93   0.209900  0.801800  0.213500  0.556880
    C   C94   0.443800  0.957000  0.338400  0.223272
    C   C95   0.376400  0.915300  0.292400  -0.438097
    C   C96   0.417700  0.844700  0.289900  0.385974
    C   C97   0.521300  0.820400  0.332400  -0.275071
    C   C98   0.582100  0.867900  0.375100  0.279708
    C   C99   0.856800  0.564000  0.153300  0.721613
    C   C100  0.953800  0.591400  0.206600  -0.088976
    C   C101  0.097700  0.563300  0.218900  0.018497
    C   C102  0.195200  0.588500  0.266900  -0.045940
    C   C103  0.139000  0.644100  0.300700  -0.230964
    C   C104  0.994100  0.671200  0.288200  -0.063992
    C   C105  0.898400  0.646100  0.242500  -0.022715
    C   C106  0.216300  0.683300  0.351800  0.687409
    C   C107  0.970400  0.729800  0.332500  0.546583
    C   C108  0.262000  0.829300  0.504300  0.443967
    C   C109  0.223700  0.773800  0.464800  -0.586089
    C   C110  0.142500  0.788900  0.412100  0.478331
    C   C111  0.097000  0.857800  0.403000  -0.379407
    C   C112  0.141300  0.907600  0.445200  0.461472
    N   N1    0.544500  0.435100  0.121300  -0.422900
    N   N2    0.359100  0.299100  0.257200  -0.303319
    N   N3    0.110200  0.235600  0.131800  -0.408057
    N   N4    0.224600  0.397100  0.005300  -0.622518
    N   N5    0.455500  0.064900  0.621300  -0.424332
    N   N6    0.640900  0.200900  0.757200  -0.303450
    N   N7    0.889800  0.264400  0.631800  -0.408070
    N   N8    0.775400  0.102900  0.505300  -0.621525
    N   N9    0.455500  0.564900  0.878700  -0.424288
    N   N10   0.640900  0.700900  0.742800  -0.303391
    N   N11   0.889800  0.764400  0.868200  -0.408059
    N   N12   0.775400  0.602900  0.994700  -0.621516
    N   N13   0.544500  0.935100  0.378700  -0.422921
    N   N14   0.359100  0.799100  0.242800  -0.303307
    N   N15   0.110200  0.735600  0.368200  -0.408066
    N   N16   0.224600  0.897100  0.494700  -0.622492
    O   O1    0.429400  0.056200  0.459850  -0.811632
    O   O2    0.206700  0.078500  0.506700  -0.657040
    O   O3    0.106300  0.338800  0.270200  -0.493515
    O   O4    0.584900  0.235800  0.271300  -0.416626
    O   O5    0.728100  0.091600  0.359220  -0.697710
    O   O6    0.909700  0.013700  0.376900  -0.697337
    O   O7    0.856000  0.263800  0.160500  -0.427837
    O   O8    0.342700  0.174600  0.124000  -0.517837
    O   O9    0.570600  0.443800  0.959850  -0.811296
    O   O10   0.793300  0.421500  0.006700  -0.656688
    O   O11   0.893700  0.161200  0.770200  -0.493542
    O   O12   0.415100  0.264200  0.771300  -0.416607
    O   O13   0.271900  0.408400  0.859220  -0.698072
    O   O14   0.090300  0.486300  0.876900  -0.697655
    O   O15   0.144000  0.236200  0.660500  -0.427845
    O   O16   0.657300  0.325400  0.624000  -0.517851
    O   O17   0.570600  0.943800  0.540150  -0.811319
    O   O18   0.793300  0.921500  0.493300  -0.656674
    O   O19   0.893700  0.661200  0.729800  -0.493542
    O   O20   0.415100  0.764200  0.728700  -0.416623
    O   O21   0.271900  0.908400  0.640780  -0.698093
    O   O22   0.090300  0.986300  0.623100  -0.697651
    O   O23   0.144000  0.736200  0.839500  -0.427858
    O   O24   0.657300  0.825400  0.876000  -0.517843
    O   O25   0.429400  0.556200  0.040150  -0.811639
    O   O26   0.206700  0.578500  0.993300  -0.657064
    O   O27   0.106300  0.838800  0.229800  -0.493518
    O   O28   0.584900  0.735800  0.228700  -0.416624
    O   O29   0.728100  0.591600  0.140780  -0.697705
    O   O30   0.909700  0.513700  0.123100  -0.697347
    O   O31   0.856000  0.763800  0.339500  -0.427841
    O   O32   0.342700  0.674600  0.376000  -0.517832
