# Generated by REPEAT Assigner based on pymatgen
data_DB12-VURYOX_clean
_audit_creation_date              2022-05-24
_audit_creation_method            REPEAT_Assigner
_cell_length_a                    4.708300
_cell_length_b                    10.980000
_cell_length_c                    31.011000
_cell_angle_alpha                 90.000000
_cell_angle_beta                  90.000000
_cell_angle_gamma                 96.145000
_cell_volume                      1593.968236
_symmetry_space_group_name_H-M    P1
_symmetry_Int_Tables_number       1
loop_
    _symmetry_equiv_pos_site_id
    _symmetry_equiv_pos_as_xyz
    1  x,y,z
loop_
    _atom_site_type_symbol
    _atom_site_label
    _atom_site_fract_x
    _atom_site_fract_y
    _atom_site_fract_z
    _atom_type_partial_charge
    Cu  Cu1  0.518730  0.397260  0.806170  0.444449
    Cu  Cu2  0.481270  0.102740  0.306170  0.444446
    Cu  Cu3  0.481270  0.602740  0.193830  0.444448
    Cu  Cu4  0.518730  0.897260  0.693830  0.444447
    H   H1   0.630000  0.461000  0.708000  0.179903
    H   H2   0.450000  0.364000  0.646000  0.012488
    H   H3   0.770000  0.297000  0.869400  0.177877
    H   H4   0.455800  0.610700  0.878000  0.116143
    H   H5   0.656200  0.636600  0.946600  0.178162
    H   H6   0.958600  0.320700  0.937600  0.161720
    H   H7   0.370000  0.039000  0.208000  0.179905
    H   H8   0.550000  0.136000  0.146000  0.012487
    H   H9   0.230000  0.203000  0.369400  0.177878
    H   H10  0.544200  0.889300  0.378000  0.116140
    H   H11  0.343800  0.863400  0.446600  0.178163
    H   H12  0.041400  0.179300  0.437600  0.161719
    H   H13  0.370000  0.539000  0.292000  0.179903
    H   H14  0.550000  0.636000  0.354000  0.012486
    H   H15  0.230000  0.703000  0.130600  0.177880
    H   H16  0.544200  0.389300  0.122000  0.116138
    H   H17  0.343800  0.363400  0.053400  0.178164
    H   H18  0.041400  0.679300  0.062400  0.161721
    H   H19  0.630000  0.961000  0.792000  0.179904
    H   H20  0.450000  0.864000  0.854000  0.012486
    H   H21  0.770000  0.797000  0.630600  0.177879
    H   H22  0.455800  0.110700  0.622000  0.116133
    H   H23  0.656200  0.136600  0.553400  0.178168
    H   H24  0.958600  0.820700  0.562400  0.161720
    C   C1   0.216500  0.177000  0.794700  0.638734
    C   C2   0.267400  0.229400  0.749300  -0.248841
    C   C3   0.509500  0.386700  0.709800  -0.031895
    C   C4   0.397500  0.328600  0.673300  0.347129
    C   C5   0.155200  0.175300  0.712100  0.415056
    C   C6   0.968300  0.057200  0.708400  0.325170
    C   C7   0.746340  0.369420  0.885530  -0.083452
    C   C8   0.564970  0.550380  0.889550  0.078881
    C   C9   0.676210  0.564020  0.930700  -0.388410
    C   C10  0.852810  0.381830  0.925820  -0.235461
    C   C11  0.810990  0.475910  0.948120  0.386471
    C   C12  0.783500  0.323000  0.294700  0.638743
    C   C13  0.732600  0.270600  0.249300  -0.248845
    C   C14  0.490500  0.113300  0.209800  -0.031909
    C   C15  0.602500  0.171400  0.173300  0.347134
    C   C16  0.844800  0.324700  0.212100  0.415058
    C   C17  0.031700  0.442800  0.208400  0.325176
    C   C18  0.253660  0.130580  0.385530  -0.083453
    C   C19  0.435030  0.949620  0.389550  0.078883
    C   C20  0.323790  0.935980  0.430700  -0.388411
    C   C21  0.147190  0.118170  0.425820  -0.235460
    C   C22  0.189010  0.024090  0.448120  0.386468
    C   C23  0.783500  0.823000  0.205300  0.638754
    C   C24  0.732600  0.770600  0.250700  -0.248848
    C   C25  0.490500  0.613300  0.290200  -0.031912
    C   C26  0.602500  0.671400  0.326700  0.347135
    C   C27  0.844800  0.824700  0.287900  0.415053
    C   C28  0.031700  0.942800  0.291600  0.325181
    C   C29  0.253660  0.630580  0.114470  -0.083453
    C   C30  0.435030  0.449620  0.110450  0.078889
    C   C31  0.323790  0.435980  0.069300  -0.388415
    C   C32  0.147190  0.618170  0.074180  -0.235465
    C   C33  0.189010  0.524090  0.051880  0.386477
    C   C34  0.216500  0.677000  0.705300  0.638756
    C   C35  0.267400  0.729400  0.750700  -0.248847
    C   C36  0.509500  0.886700  0.790200  -0.031918
    C   C37  0.397500  0.828600  0.826700  0.347136
    C   C38  0.155200  0.675300  0.787900  0.415049
    C   C39  0.968300  0.557200  0.791600  0.325193
    C   C40  0.746340  0.869420  0.614470  -0.083453
    C   C41  0.564970  0.050380  0.610450  0.078901
    C   C42  0.676210  0.064020  0.569300  -0.388424
    C   C43  0.852810  0.881830  0.574180  -0.235463
    C   C44  0.810990  0.975910  0.551880  0.386478
    N   N1   0.439500  0.334000  0.748100  0.089917
    N   N2   0.223300  0.226400  0.674300  -0.575654
    N   N3   0.606880  0.460600  0.867880  0.087985
    N   N4   0.877750  0.479050  0.995830  -0.161866
    N   N5   0.560500  0.166000  0.248100  0.089925
    N   N6   0.776700  0.273600  0.174300  -0.575656
    N   N7   0.393120  0.039400  0.367880  0.087986
    N   N8   0.122250  0.020950  0.495830  -0.161863
    N   N9   0.560500  0.666000  0.251900  0.089929
    N   N10  0.776700  0.773600  0.325700  -0.575654
    N   N11  0.393120  0.539400  0.132120  0.087983
    N   N12  0.122250  0.520950  0.004170  -0.161863
    N   N13  0.439500  0.834000  0.751900  0.089932
    N   N14  0.223300  0.726400  0.825700  -0.575655
    N   N15  0.606880  0.960600  0.632120  0.087977
    N   N16  0.877750  0.979050  0.504170  -0.161862
    O   O1   0.313400  0.248050  0.824240  -0.532096
    O   O2   0.043820  0.067310  0.799990  -0.639203
    O   O3   0.682420  0.010070  0.708590  -0.443862
    O   O4   0.126910  0.978110  0.703160  -0.299333
    O   O5   0.686600  0.251950  0.324240  -0.532103
    O   O6   0.956180  0.432690  0.299990  -0.639210
    O   O7   0.317580  0.489930  0.208590  -0.443866
    O   O8   0.873090  0.521890  0.203160  -0.299337
    O   O9   0.686600  0.751950  0.175760  -0.532110
    O   O10  0.956180  0.932690  0.200010  -0.639216
    O   O11  0.317580  0.989930  0.291410  -0.443868
    O   O12  0.873090  0.021890  0.296840  -0.299337
    O   O13  0.313400  0.748050  0.675760  -0.532113
    O   O14  0.043820  0.567310  0.700010  -0.639220
    O   O15  0.682420  0.510070  0.791410  -0.443876
    O   O16  0.126910  0.478110  0.796840  -0.299340
