# Generated by REPEAT Assigner based on pymatgen
data_DB12-REYMOZ_freeONLY
_audit_creation_date              2022-06-10
_audit_creation_method            REPEAT_Assigner
_cell_length_a                    26.301600
_cell_length_b                    26.301600
_cell_length_c                    26.301600
_cell_angle_alpha                 90.000000
_cell_angle_beta                  90.000000
_cell_angle_gamma                 90.000000
_cell_volume                      18194.767314
_symmetry_space_group_name_H-M    P1
_symmetry_Int_Tables_number       1
loop_
    _symmetry_equiv_pos_site_id
    _symmetry_equiv_pos_as_xyz
    1  x,y,z
loop_
    _atom_site_type_symbol
    _atom_site_label
    _atom_site_fract_x
    _atom_site_fract_y
    _atom_site_fract_z
    _atom_type_partial_charge
    C   C1    0.133910  0.133910  0.198300  -0.094401
    C   C2    0.866090  0.633910  0.301700  -0.094417
    C   C3    0.202760  0.568750  0.702760  0.652977
    C   C4    0.676920  0.112200  0.676920  -0.038367
    C   C5    0.702760  0.068750  0.702760  0.652976
    C   C6    0.676920  0.612200  0.176920  -0.038362
    C   C7    0.702760  0.568750  0.202760  0.652977
    C   C8    0.823080  0.887800  0.176920  -0.038357
    C   C9    0.797240  0.931250  0.202760  0.652969
    C   C10   0.823080  0.387800  0.676920  -0.038360
    C   C11   0.797240  0.431250  0.702760  0.652969
    C   C12   0.323080  0.887800  0.676920  -0.038358
    C   C13   0.366090  0.133910  0.301700  -0.094415
    C   C14   0.297240  0.931250  0.702760  0.652972
    C   C15   0.323080  0.387800  0.176920  -0.038361
    C   C16   0.297240  0.431250  0.202760  0.652968
    C   C17   0.823080  0.112200  0.823080  -0.038355
    C   C18   0.797240  0.068750  0.797240  0.652965
    C   C19   0.823080  0.612200  0.323080  -0.038357
    C   C20   0.797240  0.568750  0.297240  0.652972
    C   C21   0.323080  0.112200  0.323080  -0.038357
    C   C22   0.297240  0.068750  0.297240  0.652967
    C   C23   0.323080  0.612200  0.823080  -0.038357
    C   C24   0.366090  0.633910  0.801700  -0.094415
    C   C25   0.297240  0.568750  0.797240  0.652972
    C   C26   0.176920  0.887800  0.823080  -0.038357
    C   C27   0.202760  0.931250  0.797240  0.652969
    C   C28   0.176920  0.387800  0.323080  -0.038361
    C   C29   0.202760  0.431250  0.297240  0.652968
    C   C30   0.676920  0.887800  0.323080  -0.038358
    C   C31   0.702760  0.931250  0.297240  0.652972
    C   C32   0.676920  0.387800  0.823080  -0.038360
    C   C33   0.702760  0.431250  0.797240  0.652969
    C   C34   0.176920  0.176920  0.112200  -0.038369
    C   C35   0.133910  0.866090  0.801700  -0.094418
    C   C36   0.202760  0.202760  0.068750  0.652974
    C   C37   0.176920  0.676920  0.612200  -0.038362
    C   C38   0.202760  0.702760  0.568750  0.652977
    C   C39   0.676920  0.176920  0.612200  -0.038362
    C   C40   0.702760  0.202760  0.568750  0.652977
    C   C41   0.676920  0.676920  0.112200  -0.038367
    C   C42   0.702760  0.702760  0.068750  0.652976
    C   C43   0.176920  0.823080  0.887800  -0.038357
    C   C44   0.202760  0.797240  0.931250  0.652969
    C   C45   0.176920  0.323080  0.387800  -0.038361
    C   C46   0.133910  0.366090  0.301700  -0.094415
    C   C47   0.202760  0.297240  0.431250  0.652968
    C   C48   0.676920  0.823080  0.387800  -0.038360
    C   C49   0.702760  0.797240  0.431250  0.652969
    C   C50   0.676920  0.323080  0.887800  -0.038358
    C   C51   0.702760  0.297240  0.931250  0.652972
    C   C52   0.823080  0.823080  0.112200  -0.038355
    C   C53   0.797240  0.797240  0.068750  0.652965
    C   C54   0.823080  0.323080  0.612200  -0.038357
    C   C55   0.797240  0.297240  0.568750  0.652972
    C   C56   0.323080  0.823080  0.612200  -0.038357
    C   C57   0.633910  0.866090  0.301700  -0.094417
    C   C58   0.297240  0.797240  0.568750  0.652972
    C   C59   0.323080  0.323080  0.112200  -0.038357
    C   C60   0.297240  0.297240  0.068750  0.652967
    C   C61   0.823080  0.176920  0.887800  -0.038357
    C   C62   0.797240  0.202760  0.931250  0.652969
    C   C63   0.823080  0.676920  0.387800  -0.038360
    C   C64   0.797240  0.702760  0.431250  0.652969
    C   C65   0.323080  0.176920  0.387800  -0.038361
    C   C66   0.297240  0.202760  0.431250  0.652968
    C   C67   0.323080  0.676920  0.887800  -0.038358
    C   C68   0.633910  0.366090  0.801700  -0.094415
    C   C69   0.297240  0.702760  0.931250  0.652972
    C   C70   0.112200  0.176920  0.176920  -0.038369
    C   C71   0.068750  0.202760  0.202760  0.652974
    C   C72   0.112200  0.676920  0.676920  -0.038367
    C   C73   0.068750  0.702760  0.702760  0.652976
    C   C74   0.612200  0.176920  0.676920  -0.038362
    C   C75   0.568750  0.202760  0.702760  0.652977
    C   C76   0.612200  0.676920  0.176920  -0.038362
    C   C77   0.568750  0.702760  0.202760  0.652977
    C   C78   0.887800  0.176920  0.823080  -0.038357
    C   C79   0.198300  0.133910  0.133910  -0.094401
    C   C80   0.931250  0.202760  0.797240  0.652969
    C   C81   0.887800  0.676920  0.323080  -0.038358
    C   C82   0.931250  0.702760  0.297240  0.652972
    C   C83   0.387800  0.176920  0.323080  -0.038361
    C   C84   0.431250  0.202760  0.297240  0.652968
    C   C85   0.387800  0.676920  0.823080  -0.038360
    C   C86   0.431250  0.702760  0.797240  0.652969
    C   C87   0.112200  0.823080  0.823080  -0.038355
    C   C88   0.068750  0.797240  0.797240  0.652965
    C   C89   0.112200  0.323080  0.323080  -0.038357
    C   C90   0.198300  0.633910  0.633910  -0.094416
    C   C91   0.068750  0.297240  0.297240  0.652967
    C   C92   0.612200  0.823080  0.323080  -0.038357
    C   C93   0.568750  0.797240  0.297240  0.652972
    C   C94   0.612200  0.323080  0.823080  -0.038357
    C   C95   0.568750  0.297240  0.797240  0.652972
    C   C96   0.887800  0.823080  0.176920  -0.038357
    C   C97   0.931250  0.797240  0.202760  0.652969
    C   C98   0.887800  0.323080  0.676920  -0.038358
    C   C99   0.931250  0.297240  0.702760  0.652972
    C   C100  0.387800  0.823080  0.676920  -0.038360
    C   C101  0.698300  0.133910  0.633910  -0.094404
    C   C102  0.431250  0.797240  0.702760  0.652969
    C   C103  0.387800  0.323080  0.176920  -0.038361
    C   C104  0.431250  0.297240  0.202760  0.652968
    C   C105  0.112200  0.176920  0.823080  -0.038362
    C   C106  0.068750  0.202760  0.797240  0.652970
    C   C107  0.112200  0.676920  0.323080  -0.038363
    C   C108  0.068750  0.702760  0.297240  0.652972
    C   C109  0.612200  0.176920  0.323080  -0.038365
    C   C110  0.568750  0.202760  0.297240  0.652976
    C   C111  0.612200  0.676920  0.823080  -0.038362
    C   C112  0.133910  0.633910  0.698300  -0.094404
    C   C113  0.698300  0.633910  0.133910  -0.094404
    C   C114  0.568750  0.702760  0.797240  0.652976
    C   C115  0.887800  0.823080  0.823080  -0.038349
    C   C116  0.931250  0.797240  0.797240  0.652964
    C   C117  0.887800  0.323080  0.323080  -0.038352
    C   C118  0.931250  0.297240  0.297240  0.652966
    C   C119  0.387800  0.823080  0.323080  -0.038354
    C   C120  0.431250  0.797240  0.297240  0.652963
    C   C121  0.387800  0.323080  0.823080  -0.038354
    C   C122  0.431250  0.297240  0.797240  0.652963
    C   C123  0.112200  0.823080  0.176920  -0.038362
    C   C124  0.198300  0.866090  0.866090  -0.094410
    C   C125  0.068750  0.797240  0.202760  0.652970
    C   C126  0.112200  0.323080  0.676920  -0.038363
    C   C127  0.068750  0.297240  0.702760  0.652972
    C   C128  0.612200  0.823080  0.676920  -0.038362
    C   C129  0.568750  0.797240  0.702760  0.652976
    C   C130  0.612200  0.323080  0.176920  -0.038365
    C   C131  0.568750  0.297240  0.202760  0.652976
    C   C132  0.887800  0.176920  0.176920  -0.038364
    C   C133  0.931250  0.202760  0.202760  0.652974
    C   C134  0.887800  0.676920  0.676920  -0.038364
    C   C135  0.198300  0.366090  0.366090  -0.094405
    C   C136  0.931250  0.702760  0.702760  0.652977
    C   C137  0.387800  0.176920  0.676920  -0.038368
    C   C138  0.431250  0.202760  0.702760  0.652976
    C   C139  0.387800  0.676920  0.176920  -0.038368
    C   C140  0.431250  0.702760  0.202760  0.652976
    C   C141  0.176920  0.176920  0.887800  -0.038364
    C   C142  0.202760  0.202760  0.931250  0.652974
    C   C143  0.176920  0.676920  0.387800  -0.038368
    C   C144  0.202760  0.702760  0.431250  0.652976
    C   C145  0.676920  0.176920  0.387800  -0.038368
    C   C146  0.698300  0.866090  0.366090  -0.094407
    C   C147  0.702760  0.202760  0.431250  0.652976
    C   C148  0.676920  0.676920  0.887800  -0.038364
    C   C149  0.702760  0.702760  0.931250  0.652977
    C   C150  0.823080  0.176920  0.112200  -0.038362
    C   C151  0.797240  0.202760  0.068750  0.652970
    C   C152  0.823080  0.676920  0.612200  -0.038362
    C   C153  0.797240  0.702760  0.568750  0.652976
    C   C154  0.323080  0.176920  0.612200  -0.038365
    C   C155  0.297240  0.202760  0.568750  0.652976
    C   C156  0.323080  0.676920  0.112200  -0.038363
    C   C157  0.698300  0.366090  0.866090  -0.094407
    C   C158  0.297240  0.702760  0.068750  0.652972
    C   C159  0.823080  0.823080  0.887800  -0.038349
    C   C160  0.797240  0.797240  0.931250  0.652964
    C   C161  0.823080  0.323080  0.387800  -0.038354
    C   C162  0.797240  0.297240  0.431250  0.652963
    C   C163  0.323080  0.823080  0.387800  -0.038354
    C   C164  0.297240  0.797240  0.431250  0.652963
    C   C165  0.323080  0.323080  0.887800  -0.038352
    C   C166  0.297240  0.297240  0.931250  0.652966
    C   C167  0.176920  0.823080  0.112200  -0.038362
    C   C168  0.801700  0.866090  0.133910  -0.094418
    C   C169  0.202760  0.797240  0.068750  0.652970
    C   C170  0.176920  0.323080  0.612200  -0.038365
    C   C171  0.202760  0.297240  0.568750  0.652976
    C   C172  0.676920  0.823080  0.612200  -0.038362
    C   C173  0.702760  0.797240  0.568750  0.652976
    C   C174  0.676920  0.323080  0.112200  -0.038363
    C   C175  0.702760  0.297240  0.068750  0.652972
    C   C176  0.176920  0.112200  0.823080  -0.038362
    C   C177  0.202760  0.068750  0.797240  0.652970
    C   C178  0.176920  0.612200  0.323080  -0.038365
    C   C179  0.801700  0.366090  0.633910  -0.094415
    C   C180  0.202760  0.568750  0.297240  0.652976
    C   C181  0.676920  0.112200  0.323080  -0.038363
    C   C182  0.702760  0.068750  0.297240  0.652972
    C   C183  0.676920  0.612200  0.823080  -0.038362
    C   C184  0.702760  0.568750  0.797240  0.652976
    C   C185  0.176920  0.887800  0.176920  -0.038364
    C   C186  0.202760  0.931250  0.202760  0.652974
    C   C187  0.176920  0.387800  0.676920  -0.038368
    C   C188  0.202760  0.431250  0.702760  0.652976
    C   C189  0.676920  0.887800  0.676920  -0.038364
    C   C190  0.301700  0.866090  0.633910  -0.094417
    C   C191  0.702760  0.931250  0.702760  0.652977
    C   C192  0.676920  0.387800  0.176920  -0.038368
    C   C193  0.702760  0.431250  0.202760  0.652976
    C   C194  0.823080  0.112200  0.176920  -0.038362
    C   C195  0.797240  0.068750  0.202760  0.652970
    C   C196  0.823080  0.612200  0.676920  -0.038362
    C   C197  0.797240  0.568750  0.702760  0.652976
    C   C198  0.323080  0.112200  0.676920  -0.038363
    C   C199  0.297240  0.068750  0.702760  0.652972
    C   C200  0.323080  0.612200  0.176920  -0.038365
    C   C201  0.301700  0.366090  0.133910  -0.094415
    C   C202  0.297240  0.568750  0.202760  0.652976
    C   C203  0.823080  0.887800  0.823080  -0.038349
    C   C204  0.797240  0.931250  0.797240  0.652964
    C   C205  0.823080  0.387800  0.323080  -0.038354
    C   C206  0.797240  0.431250  0.297240  0.652963
    C   C207  0.323080  0.887800  0.323080  -0.038352
    C   C208  0.297240  0.931250  0.297240  0.652966
    C   C209  0.323080  0.387800  0.823080  -0.038354
    C   C210  0.297240  0.431250  0.797240  0.652963
    C   C211  0.801700  0.133910  0.866090  -0.094418
    C   C212  0.633910  0.133910  0.698300  -0.094404
    C   C213  0.801700  0.633910  0.366090  -0.094415
    C   C214  0.301700  0.133910  0.366090  -0.094415
    C   C215  0.301700  0.633910  0.866090  -0.094417
    C   C216  0.133910  0.198300  0.133910  -0.094401
    C   C217  0.133910  0.698300  0.633910  -0.094404
    C   C218  0.633910  0.198300  0.633910  -0.094416
    C   C219  0.633910  0.698300  0.133910  -0.094404
    C   C220  0.866090  0.198300  0.866090  -0.094410
    C   C221  0.866090  0.698300  0.366090  -0.094407
    C   C222  0.366090  0.198300  0.366090  -0.094405
    C   C223  0.633910  0.633910  0.198300  -0.094416
    C   C224  0.366090  0.698300  0.866090  -0.094407
    C   C225  0.133910  0.801700  0.866090  -0.094418
    C   C226  0.133910  0.301700  0.366090  -0.094415
    C   C227  0.633910  0.801700  0.366090  -0.094415
    C   C228  0.633910  0.301700  0.866090  -0.094417
    C   C229  0.866090  0.801700  0.133910  -0.094418
    C   C230  0.866090  0.301700  0.633910  -0.094417
    C   C231  0.366090  0.801700  0.633910  -0.094415
    C   C232  0.366090  0.301700  0.133910  -0.094415
    C   C233  0.133910  0.133910  0.801700  -0.094414
    C   C234  0.866090  0.866090  0.198300  -0.094410
    C   C235  0.133910  0.633910  0.301700  -0.094413
    C   C236  0.633910  0.133910  0.301700  -0.094413
    C   C237  0.633910  0.633910  0.801700  -0.094414
    C   C238  0.866090  0.866090  0.801700  -0.094423
    C   C239  0.866090  0.366090  0.301700  -0.094419
    C   C240  0.366090  0.866090  0.301700  -0.094419
    C   C241  0.366090  0.366090  0.801700  -0.094417
    C   C242  0.133910  0.866090  0.198300  -0.094405
    C   C243  0.133910  0.366090  0.698300  -0.094402
    C   C244  0.633910  0.866090  0.698300  -0.094406
    C   C245  0.866090  0.366090  0.698300  -0.094407
    C   C246  0.633910  0.366090  0.198300  -0.094402
    C   C247  0.866090  0.133910  0.198300  -0.094405
    C   C248  0.866090  0.633910  0.698300  -0.094406
    C   C249  0.366090  0.133910  0.698300  -0.094402
    C   C250  0.366090  0.633910  0.198300  -0.094402
    C   C251  0.133910  0.198300  0.866090  -0.094405
    C   C252  0.133910  0.698300  0.366090  -0.094402
    C   C253  0.633910  0.198300  0.366090  -0.094402
    C   C254  0.633910  0.698300  0.866090  -0.094406
    C   C255  0.866090  0.198300  0.133910  -0.094405
    C   C256  0.366090  0.866090  0.698300  -0.094407
    C   C257  0.866090  0.698300  0.633910  -0.094406
    C   C258  0.366090  0.198300  0.633910  -0.094402
    C   C259  0.366090  0.698300  0.133910  -0.094402
    C   C260  0.866090  0.801700  0.866090  -0.094423
    C   C261  0.866090  0.301700  0.366090  -0.094419
    C   C262  0.366090  0.801700  0.366090  -0.094417
    C   C263  0.366090  0.301700  0.866090  -0.094419
    C   C264  0.133910  0.801700  0.133910  -0.094414
    C   C265  0.133910  0.301700  0.633910  -0.094413
    C   C266  0.633910  0.801700  0.633910  -0.094414
    C   C267  0.366090  0.366090  0.198300  -0.094405
    C   C268  0.633910  0.301700  0.133910  -0.094413
    C   C269  0.198300  0.133910  0.866090  -0.094405
    C   C270  0.198300  0.633910  0.366090  -0.094402
    C   C271  0.698300  0.133910  0.366090  -0.094402
    C   C272  0.698300  0.633910  0.866090  -0.094406
    C   C273  0.198300  0.866090  0.133910  -0.094405
    C   C274  0.198300  0.366090  0.633910  -0.094402
    C   C275  0.698300  0.866090  0.633910  -0.094406
    C   C276  0.698300  0.366090  0.133910  -0.094402
    C   C277  0.801700  0.133910  0.133910  -0.094414
    C   C278  0.866090  0.133910  0.801700  -0.094418
    C   C279  0.801700  0.633910  0.633910  -0.094414
    C   C280  0.301700  0.133910  0.633910  -0.094413
    C   C281  0.301700  0.633910  0.133910  -0.094413
    C   C282  0.801700  0.866090  0.866090  -0.094423
    C   C283  0.801700  0.366090  0.366090  -0.094417
    C   C284  0.301700  0.866090  0.366090  -0.094419
    C   C285  0.301700  0.366090  0.866090  -0.094419
    C   C286  0.176920  0.112200  0.176920  -0.038369
    C   C287  0.202760  0.068750  0.202760  0.652974
    C   C288  0.176920  0.612200  0.676920  -0.038362
    Cu  Cu1   0.285130  0.000000  0.214870  0.981490
    Cu  Cu2   0.285130  0.500000  0.285130  0.981483
    Cu  Cu3   0.214870  0.285130  0.000000  0.981490
    Cu  Cu4   0.214870  0.785130  0.500000  0.981486
    Cu  Cu5   0.214870  0.714870  0.000000  0.981495
    Cu  Cu6   0.214870  0.214870  0.500000  0.981489
    Cu  Cu7   0.785130  0.714870  0.000000  0.981490
    Cu  Cu8   0.785130  0.214870  0.500000  0.981486
    Cu  Cu9   0.285130  0.214870  0.000000  0.981490
    Cu  Cu10  0.785130  0.285130  0.000000  0.981486
    Cu  Cu11  0.785130  0.785130  0.500000  0.981481
    Cu  Cu12  0.285130  0.500000  0.714870  0.981488
    Cu  Cu13  0.285130  0.285130  0.500000  0.981483
    Cu  Cu14  0.000000  0.214870  0.285130  0.981490
    Cu  Cu15  0.500000  0.214870  0.785130  0.981486
    Cu  Cu16  0.000000  0.214870  0.714870  0.981495
    Cu  Cu17  0.500000  0.214870  0.214870  0.981489
    Cu  Cu18  0.000000  0.785130  0.714870  0.981490
    Cu  Cu19  0.000000  0.285130  0.214870  0.981490
    Cu  Cu20  0.500000  0.785130  0.214870  0.981486
    Cu  Cu21  0.000000  0.785130  0.285130  0.981486
    Cu  Cu22  0.500000  0.785130  0.785130  0.981481
    Cu  Cu23  0.714870  0.000000  0.214870  0.981495
    Cu  Cu24  0.500000  0.285130  0.285130  0.981483
    Cu  Cu25  0.000000  0.285130  0.785130  0.981486
    Cu  Cu26  0.000000  0.714870  0.785130  0.981490
    Cu  Cu27  0.500000  0.714870  0.285130  0.981488
    Cu  Cu28  0.000000  0.714870  0.214870  0.981495
    Cu  Cu29  0.500000  0.714870  0.714870  0.981492
    Cu  Cu30  0.500000  0.285130  0.714870  0.981488
    Cu  Cu31  0.285130  0.714870  0.500000  0.981488
    Cu  Cu32  0.714870  0.214870  0.000000  0.981495
    Cu  Cu33  0.714870  0.714870  0.500000  0.981492
    Cu  Cu34  0.714870  0.500000  0.714870  0.981492
    Cu  Cu35  0.714870  0.785130  0.000000  0.981490
    Cu  Cu36  0.714870  0.285130  0.500000  0.981488
    Cu  Cu37  0.285130  0.785130  0.000000  0.981486
    Cu  Cu38  0.214870  0.000000  0.714870  0.981495
    Cu  Cu39  0.214870  0.500000  0.785130  0.981486
    Cu  Cu40  0.785130  0.000000  0.285130  0.981486
    Cu  Cu41  0.785130  0.500000  0.785130  0.981481
    Cu  Cu42  0.785130  0.000000  0.714870  0.981490
    Cu  Cu43  0.785130  0.500000  0.214870  0.981486
    Cu  Cu44  0.214870  0.500000  0.214870  0.981489
    Cu  Cu45  0.714870  0.000000  0.785130  0.981490
    Cu  Cu46  0.714870  0.500000  0.285130  0.981488
    Cu  Cu47  0.214870  0.000000  0.285130  0.981490
    Cu  Cu48  0.285130  0.000000  0.785130  0.981486
    H   H1    0.119500  0.119500  0.227300  0.157277
    H   H2    0.880500  0.619500  0.272700  0.157285
    H   H3    0.380500  0.119500  0.272700  0.157284
    H   H4    0.380500  0.619500  0.772700  0.157284
    H   H5    0.119500  0.880500  0.772700  0.157285
    H   H6    0.119500  0.380500  0.272700  0.157284
    H   H7    0.619500  0.880500  0.272700  0.157285
    H   H8    0.619500  0.380500  0.772700  0.157284
    H   H9    0.227300  0.119500  0.119500  0.157277
    H   H10   0.227300  0.619500  0.619500  0.157285
    H   H11   0.727300  0.119500  0.619500  0.157277
    H   H12   0.119500  0.619500  0.727300  0.157277
    H   H13   0.727300  0.619500  0.119500  0.157277
    H   H14   0.227300  0.880500  0.880500  0.157278
    H   H15   0.227300  0.380500  0.380500  0.157276
    H   H16   0.727300  0.880500  0.380500  0.157277
    H   H17   0.727300  0.380500  0.880500  0.157277
    H   H18   0.772700  0.880500  0.119500  0.157285
    H   H19   0.772700  0.380500  0.619500  0.157284
    H   H20   0.272700  0.880500  0.619500  0.157285
    H   H21   0.272700  0.380500  0.119500  0.157284
    H   H22   0.772700  0.119500  0.880500  0.157285
    H   H23   0.619500  0.119500  0.727300  0.157277
    H   H24   0.772700  0.619500  0.380500  0.157284
    H   H25   0.272700  0.119500  0.380500  0.157284
    H   H26   0.272700  0.619500  0.880500  0.157285
    H   H27   0.119500  0.227300  0.119500  0.157277
    H   H28   0.119500  0.727300  0.619500  0.157277
    H   H29   0.619500  0.227300  0.619500  0.157285
    H   H30   0.619500  0.727300  0.119500  0.157277
    H   H31   0.880500  0.227300  0.880500  0.157278
    H   H32   0.880500  0.727300  0.380500  0.157277
    H   H33   0.380500  0.227300  0.380500  0.157276
    H   H34   0.619500  0.619500  0.227300  0.157285
    H   H35   0.380500  0.727300  0.880500  0.157277
    H   H36   0.119500  0.772700  0.880500  0.157285
    H   H37   0.119500  0.272700  0.380500  0.157284
    H   H38   0.619500  0.772700  0.380500  0.157284
    H   H39   0.619500  0.272700  0.880500  0.157285
    H   H40   0.880500  0.772700  0.119500  0.157285
    H   H41   0.880500  0.272700  0.619500  0.157285
    H   H42   0.380500  0.772700  0.619500  0.157284
    H   H43   0.380500  0.272700  0.119500  0.157284
    H   H44   0.119500  0.119500  0.772700  0.157285
    H   H45   0.880500  0.880500  0.227300  0.157278
    H   H46   0.119500  0.619500  0.272700  0.157285
    H   H47   0.619500  0.119500  0.272700  0.157285
    H   H48   0.619500  0.619500  0.772700  0.157286
    H   H49   0.880500  0.880500  0.772700  0.157286
    H   H50   0.880500  0.380500  0.272700  0.157285
    H   H51   0.380500  0.880500  0.272700  0.157285
    H   H52   0.380500  0.380500  0.772700  0.157284
    H   H53   0.119500  0.880500  0.227300  0.157278
    H   H54   0.119500  0.380500  0.727300  0.157276
    H   H55   0.619500  0.880500  0.727300  0.157278
    H   H56   0.880500  0.380500  0.727300  0.157277
    H   H57   0.619500  0.380500  0.227300  0.157277
    H   H58   0.880500  0.119500  0.227300  0.157278
    H   H59   0.880500  0.619500  0.727300  0.157278
    H   H60   0.380500  0.119500  0.727300  0.157276
    H   H61   0.380500  0.619500  0.227300  0.157277
    H   H62   0.119500  0.227300  0.880500  0.157278
    H   H63   0.119500  0.727300  0.380500  0.157276
    H   H64   0.619500  0.227300  0.380500  0.157277
    H   H65   0.619500  0.727300  0.880500  0.157278
    H   H66   0.880500  0.227300  0.119500  0.157278
    H   H67   0.380500  0.880500  0.727300  0.157277
    H   H68   0.880500  0.727300  0.619500  0.157278
    H   H69   0.380500  0.227300  0.619500  0.157277
    H   H70   0.380500  0.727300  0.119500  0.157276
    H   H71   0.880500  0.772700  0.880500  0.157286
    H   H72   0.880500  0.272700  0.380500  0.157285
    H   H73   0.380500  0.772700  0.380500  0.157284
    H   H74   0.380500  0.272700  0.880500  0.157285
    H   H75   0.119500  0.772700  0.119500  0.157285
    H   H76   0.119500  0.272700  0.619500  0.157285
    H   H77   0.619500  0.772700  0.619500  0.157286
    H   H78   0.380500  0.380500  0.227300  0.157276
    H   H79   0.619500  0.272700  0.119500  0.157285
    H   H80   0.227300  0.119500  0.880500  0.157278
    H   H81   0.227300  0.619500  0.380500  0.157277
    H   H82   0.727300  0.119500  0.380500  0.157276
    H   H83   0.727300  0.619500  0.880500  0.157278
    H   H84   0.227300  0.880500  0.119500  0.157278
    H   H85   0.227300  0.380500  0.619500  0.157277
    H   H86   0.727300  0.880500  0.619500  0.157278
    H   H87   0.727300  0.380500  0.119500  0.157276
    H   H88   0.772700  0.119500  0.119500  0.157285
    H   H89   0.880500  0.119500  0.772700  0.157285
    H   H90   0.772700  0.619500  0.619500  0.157286
    H   H91   0.272700  0.119500  0.619500  0.157285
    H   H92   0.272700  0.619500  0.119500  0.157285
    H   H93   0.772700  0.880500  0.880500  0.157286
    H   H94   0.772700  0.380500  0.380500  0.157284
    H   H95   0.272700  0.880500  0.380500  0.157285
    H   H96   0.272700  0.380500  0.880500  0.157285
    O   O1    0.243350  0.052610  0.183000  -0.518276
    O   O2    0.756650  0.552610  0.317000  -0.518277
    O   O3    0.256650  0.447390  0.817000  -0.518273
    O   O4    0.243350  0.052610  0.817000  -0.518274
    O   O5    0.243350  0.552610  0.317000  -0.518277
    O   O6    0.743350  0.052610  0.317000  -0.518274
    O   O7    0.743350  0.552610  0.817000  -0.518277
    O   O8    0.243350  0.947390  0.183000  -0.518278
    O   O9    0.243350  0.447390  0.683000  -0.518277
    O   O10   0.743350  0.947390  0.683000  -0.518279
    O   O11   0.743350  0.447390  0.183000  -0.518276
    O   O12   0.756650  0.052610  0.183000  -0.518276
    O   O13   0.256650  0.052610  0.317000  -0.518274
    O   O14   0.756650  0.552610  0.683000  -0.518279
    O   O15   0.256650  0.052610  0.683000  -0.518277
    O   O16   0.256650  0.552610  0.183000  -0.518279
    O   O17   0.817000  0.756650  0.947390  -0.518276
    O   O18   0.817000  0.256650  0.447390  -0.518273
    O   O19   0.317000  0.756650  0.447390  -0.518273
    O   O20   0.317000  0.256650  0.947390  -0.518276
    O   O21   0.817000  0.243350  0.052610  -0.518274
    O   O22   0.817000  0.743350  0.552610  -0.518277
    O   O23   0.317000  0.243350  0.552610  -0.518277
    O   O24   0.256650  0.552610  0.817000  -0.518277
    O   O25   0.317000  0.743350  0.052610  -0.518274
    O   O26   0.183000  0.243350  0.947390  -0.518278
    O   O27   0.183000  0.743350  0.447390  -0.518276
    O   O28   0.683000  0.243350  0.447390  -0.518277
    O   O29   0.683000  0.743350  0.947390  -0.518279
    O   O30   0.183000  0.756650  0.052610  -0.518276
    O   O31   0.183000  0.256650  0.552610  -0.518279
    O   O32   0.683000  0.756650  0.552610  -0.518279
    O   O33   0.683000  0.256650  0.052610  -0.518277
    O   O34   0.947390  0.817000  0.756650  -0.518276
    O   O35   0.243350  0.947390  0.817000  -0.518276
    O   O36   0.947390  0.317000  0.256650  -0.518276
    O   O37   0.447390  0.817000  0.256650  -0.518273
    O   O38   0.447390  0.317000  0.756650  -0.518273
    O   O39   0.052610  0.817000  0.243350  -0.518274
    O   O40   0.052610  0.317000  0.743350  -0.518274
    O   O41   0.552610  0.817000  0.743350  -0.518277
    O   O42   0.552610  0.317000  0.243350  -0.518277
    O   O43   0.947390  0.183000  0.243350  -0.518278
    O   O44   0.947390  0.683000  0.743350  -0.518279
    O   O45   0.447390  0.183000  0.743350  -0.518276
    O   O46   0.243350  0.447390  0.317000  -0.518273
    O   O47   0.447390  0.683000  0.243350  -0.518277
    O   O48   0.052610  0.183000  0.756650  -0.518276
    O   O49   0.052610  0.683000  0.256650  -0.518277
    O   O50   0.552610  0.183000  0.256650  -0.518279
    O   O51   0.552610  0.683000  0.756650  -0.518279
    O   O52   0.947390  0.756650  0.183000  -0.518278
    O   O53   0.947390  0.256650  0.683000  -0.518279
    O   O54   0.447390  0.756650  0.683000  -0.518275
    O   O55   0.447390  0.256650  0.183000  -0.518275
    O   O56   0.052610  0.243350  0.183000  -0.518276
    O   O57   0.743350  0.947390  0.317000  -0.518277
    O   O58   0.052610  0.743350  0.683000  -0.518277
    O   O59   0.552610  0.243350  0.683000  -0.518279
    O   O60   0.552610  0.743350  0.183000  -0.518279
    O   O61   0.947390  0.243350  0.817000  -0.518276
    O   O62   0.947390  0.743350  0.317000  -0.518277
    O   O63   0.447390  0.243350  0.317000  -0.518273
    O   O64   0.447390  0.743350  0.817000  -0.518273
    O   O65   0.052610  0.756650  0.817000  -0.518274
    O   O66   0.052610  0.256650  0.317000  -0.518274
    O   O67   0.552610  0.756650  0.317000  -0.518277
    O   O68   0.743350  0.447390  0.817000  -0.518273
    O   O69   0.552610  0.256650  0.817000  -0.518277
    O   O70   0.756650  0.817000  0.052610  -0.518274
    O   O71   0.756650  0.317000  0.552610  -0.518277
    O   O72   0.256650  0.817000  0.552610  -0.518277
    O   O73   0.256650  0.317000  0.052610  -0.518274
    O   O74   0.243350  0.817000  0.947390  -0.518276
    O   O75   0.243350  0.317000  0.447390  -0.518273
    O   O76   0.743350  0.817000  0.447390  -0.518273
    O   O77   0.743350  0.317000  0.947390  -0.518277
    O   O78   0.243350  0.183000  0.052610  -0.518276
    O   O79   0.183000  0.243350  0.052610  -0.518276
    O   O80   0.243350  0.683000  0.552610  -0.518279
    O   O81   0.743350  0.183000  0.552610  -0.518279
    O   O82   0.743350  0.683000  0.052610  -0.518277
    O   O83   0.756650  0.183000  0.947390  -0.518278
    O   O84   0.756650  0.683000  0.447390  -0.518275
    O   O85   0.256650  0.183000  0.447390  -0.518275
    O   O86   0.256650  0.683000  0.947390  -0.518279
    O   O87   0.817000  0.947390  0.243350  -0.518276
    O   O88   0.817000  0.447390  0.743350  -0.518273
    O   O89   0.317000  0.947390  0.743350  -0.518277
    O   O90   0.183000  0.743350  0.552610  -0.518279
    O   O91   0.317000  0.447390  0.243350  -0.518273
    O   O92   0.817000  0.052610  0.756650  -0.518274
    O   O93   0.817000  0.552610  0.256650  -0.518277
    O   O94   0.317000  0.052610  0.256650  -0.518274
    O   O95   0.317000  0.552610  0.756650  -0.518277
    O   O96   0.183000  0.947390  0.756650  -0.518278
    O   O97   0.183000  0.447390  0.256650  -0.518275
    O   O98   0.683000  0.947390  0.256650  -0.518279
    O   O99   0.683000  0.447390  0.756650  -0.518275
    O   O100  0.183000  0.052610  0.243350  -0.518276
    O   O101  0.683000  0.243350  0.552610  -0.518279
    O   O102  0.183000  0.552610  0.743350  -0.518279
    O   O103  0.683000  0.052610  0.743350  -0.518277
    O   O104  0.683000  0.552610  0.243350  -0.518279
    O   O105  0.343900  0.000000  0.156100  -0.263346
    O   O106  0.343900  0.500000  0.656100  -0.263346
    O   O107  0.656100  0.000000  0.156100  -0.263347
    O   O108  0.656100  0.500000  0.656100  -0.263347
    O   O109  0.156100  0.500000  0.156100  -0.263346
    O   O110  0.656100  0.000000  0.843900  -0.263346
    O   O111  0.656100  0.500000  0.343900  -0.263346
    O   O112  0.243350  0.552610  0.683000  -0.518279
    O   O113  0.683000  0.743350  0.052610  -0.518277
    O   O114  0.156100  0.000000  0.343900  -0.263346
    O   O115  0.343900  0.000000  0.843900  -0.263345
    O   O116  0.343900  0.500000  0.343900  -0.263345
    O   O117  0.156100  0.343900  0.000000  -0.263346
    O   O118  0.156100  0.843900  0.500000  -0.263345
    O   O119  0.156100  0.656100  0.000000  -0.263347
    O   O120  0.156100  0.156100  0.500000  -0.263346
    O   O121  0.843900  0.656100  0.000000  -0.263346
    O   O122  0.843900  0.156100  0.500000  -0.263345
    O   O123  0.343900  0.156100  0.000000  -0.263346
    O   O124  0.183000  0.756650  0.947390  -0.518278
    O   O125  0.843900  0.343900  0.000000  -0.263345
    O   O126  0.843900  0.843900  0.500000  -0.263344
    O   O127  0.343900  0.343900  0.500000  -0.263345
    O   O128  0.000000  0.156100  0.343900  -0.263346
    O   O129  0.500000  0.156100  0.843900  -0.263345
    O   O130  0.000000  0.156100  0.656100  -0.263347
    O   O131  0.500000  0.156100  0.156100  -0.263346
    O   O132  0.000000  0.843900  0.656100  -0.263346
    O   O133  0.000000  0.343900  0.156100  -0.263346
    O   O134  0.500000  0.843900  0.156100  -0.263345
    O   O135  0.183000  0.256650  0.447390  -0.518275
    O   O136  0.000000  0.843900  0.343900  -0.263345
    O   O137  0.500000  0.843900  0.843900  -0.263344
    O   O138  0.500000  0.343900  0.343900  -0.263345
    O   O139  0.000000  0.343900  0.843900  -0.263345
    O   O140  0.000000  0.656100  0.843900  -0.263346
    O   O141  0.500000  0.656100  0.343900  -0.263346
    O   O142  0.000000  0.656100  0.156100  -0.263347
    O   O143  0.500000  0.656100  0.656100  -0.263347
    O   O144  0.500000  0.343900  0.656100  -0.263346
    O   O145  0.343900  0.656100  0.500000  -0.263346
    O   O146  0.683000  0.756650  0.447390  -0.518275
    O   O147  0.656100  0.156100  0.000000  -0.263347
    O   O148  0.656100  0.656100  0.500000  -0.263347
    O   O149  0.656100  0.843900  0.000000  -0.263346
    O   O150  0.656100  0.343900  0.500000  -0.263346
    O   O151  0.343900  0.843900  0.000000  -0.263345
    O   O152  0.156100  0.000000  0.656100  -0.263347
    O   O153  0.156100  0.500000  0.843900  -0.263345
    O   O154  0.843900  0.000000  0.343900  -0.263345
    O   O155  0.843900  0.500000  0.843900  -0.263344
    O   O156  0.843900  0.000000  0.656100  -0.263346
    O   O157  0.683000  0.256650  0.947390  -0.518279
    O   O158  0.843900  0.500000  0.156100  -0.263345
    O   O159  0.817000  0.756650  0.052610  -0.518274
    O   O160  0.817000  0.256650  0.552610  -0.518277
    O   O161  0.317000  0.756650  0.552610  -0.518277
    O   O162  0.317000  0.256650  0.052610  -0.518274
    O   O163  0.817000  0.243350  0.947390  -0.518276
    O   O164  0.743350  0.052610  0.683000  -0.518277
    O   O165  0.817000  0.743350  0.447390  -0.518273
    O   O166  0.317000  0.243350  0.447390  -0.518273
    O   O167  0.317000  0.743350  0.947390  -0.518277
    O   O168  0.052610  0.183000  0.243350  -0.518276
    O   O169  0.052610  0.683000  0.743350  -0.518277
    O   O170  0.552610  0.183000  0.743350  -0.518279
    O   O171  0.552610  0.683000  0.243350  -0.518279
    O   O172  0.947390  0.183000  0.756650  -0.518278
    O   O173  0.947390  0.683000  0.256650  -0.518279
    O   O174  0.447390  0.183000  0.256650  -0.518275
    O   O175  0.743350  0.552610  0.183000  -0.518279
    O   O176  0.447390  0.683000  0.756650  -0.518275
    O   O177  0.052610  0.817000  0.756650  -0.518274
    O   O178  0.052610  0.317000  0.256650  -0.518274
    O   O179  0.552610  0.817000  0.256650  -0.518277
    O   O180  0.552610  0.317000  0.756650  -0.518277
    O   O181  0.947390  0.817000  0.243350  -0.518276
    O   O182  0.947390  0.317000  0.743350  -0.518277
    O   O183  0.447390  0.817000  0.743350  -0.518273
    O   O184  0.447390  0.317000  0.243350  -0.518273
    O   O185  0.052610  0.243350  0.817000  -0.518274
    O   O186  0.756650  0.947390  0.183000  -0.518278
    O   O187  0.052610  0.743350  0.317000  -0.518274
    O   O188  0.552610  0.243350  0.317000  -0.518277
    O   O189  0.552610  0.743350  0.817000  -0.518277
    O   O190  0.947390  0.756650  0.817000  -0.518276
    O   O191  0.947390  0.256650  0.317000  -0.518276
    O   O192  0.447390  0.756650  0.317000  -0.518273
    O   O193  0.447390  0.256650  0.817000  -0.518273
    O   O194  0.052610  0.756650  0.183000  -0.518276
    O   O195  0.052610  0.256650  0.683000  -0.518277
    O   O196  0.552610  0.756650  0.683000  -0.518279
    O   O197  0.756650  0.447390  0.683000  -0.518275
    O   O198  0.552610  0.256650  0.183000  -0.518279
    O   O199  0.947390  0.243350  0.183000  -0.518278
    O   O200  0.947390  0.743350  0.683000  -0.518279
    O   O201  0.447390  0.243350  0.683000  -0.518277
    O   O202  0.447390  0.743350  0.183000  -0.518276
    O   O203  0.243350  0.183000  0.947390  -0.518278
    O   O204  0.243350  0.683000  0.447390  -0.518277
    O   O205  0.743350  0.183000  0.447390  -0.518276
    O   O206  0.743350  0.683000  0.947390  -0.518279
    O   O207  0.756650  0.183000  0.052610  -0.518276
    O   O208  0.256650  0.947390  0.683000  -0.518279
    O   O209  0.756650  0.683000  0.552610  -0.518279
    O   O210  0.256650  0.183000  0.552610  -0.518279
    O   O211  0.256650  0.683000  0.052610  -0.518277
    O   O212  0.756650  0.817000  0.947390  -0.518276
    O   O213  0.756650  0.317000  0.447390  -0.518273
    O   O214  0.256650  0.817000  0.447390  -0.518273
    O   O215  0.256650  0.317000  0.947390  -0.518276
    O   O216  0.243350  0.817000  0.052610  -0.518274
    O   O217  0.243350  0.317000  0.552610  -0.518277
    O   O218  0.743350  0.817000  0.552610  -0.518277
    O   O219  0.256650  0.447390  0.183000  -0.518275
    O   O220  0.743350  0.317000  0.052610  -0.518274
    O   O221  0.183000  0.052610  0.756650  -0.518276
    O   O222  0.183000  0.552610  0.256650  -0.518279
    O   O223  0.683000  0.052610  0.256650  -0.518277
    O   O224  0.683000  0.552610  0.756650  -0.518279
    O   O225  0.183000  0.947390  0.243350  -0.518278
    O   O226  0.183000  0.447390  0.743350  -0.518276
    O   O227  0.683000  0.947390  0.743350  -0.518279
    O   O228  0.683000  0.447390  0.243350  -0.518277
    O   O229  0.817000  0.052610  0.243350  -0.518274
    O   O230  0.756650  0.052610  0.817000  -0.518274
    O   O231  0.817000  0.552610  0.743350  -0.518277
    O   O232  0.317000  0.052610  0.743350  -0.518274
    O   O233  0.317000  0.552610  0.243350  -0.518277
    O   O234  0.817000  0.947390  0.756650  -0.518276
    O   O235  0.817000  0.447390  0.256650  -0.518273
    O   O236  0.317000  0.947390  0.256650  -0.518276
    O   O237  0.317000  0.447390  0.756650  -0.518273
    O   O238  0.756650  0.947390  0.817000  -0.518276
    O   O239  0.756650  0.447390  0.317000  -0.518273
    O   O240  0.256650  0.947390  0.317000  -0.518276
