# Generated by REPEAT Assigner based on pymatgen
data_DB12-LIJNOJ01_clean
_audit_creation_date              2022-05-24
_audit_creation_method            REPEAT_Assigner
_cell_length_a                    17.551500
_cell_length_b                    14.287500
_cell_length_c                    18.745600
_cell_angle_alpha                 90.000000
_cell_angle_beta                  97.436000
_cell_angle_gamma                 90.000000
_cell_volume                      4661.245576
_symmetry_space_group_name_H-M    P1
_symmetry_Int_Tables_number       1
loop_
    _symmetry_equiv_pos_site_id
    _symmetry_equiv_pos_as_xyz
    1  x,y,z
loop_
    _atom_site_type_symbol
    _atom_site_label
    _atom_site_fract_x
    _atom_site_fract_y
    _atom_site_fract_z
    _atom_type_partial_charge
    C   C1    0.777890  0.066700  0.598020  0.650766
    C   C2    0.759410  0.207200  0.841020  0.260134
    C   C3    0.197200  0.847500  0.207330  0.060490
    C   C4    0.124200  0.882300  0.183400  -0.258757
    C   C5    0.084600  0.934800  0.228100  0.001402
    C   C6    0.116100  0.952700  0.298680  -0.156221
    C   C7    0.357400  0.750500  0.112580  0.245170
    C   C8    0.319400  0.804800  0.158130  -0.379984
    C   C9    0.240590  0.792800  0.158980  0.260138
    C   C10   0.204400  0.727400  0.110860  -0.367051
    C   C11   0.246680  0.675400  0.068220  0.365386
    C   C12   0.546080  0.578000  0.103990  0.624006
    C   C13   0.795600  0.272600  0.889140  -0.367053
    C   C14   0.584950  0.603300  0.178730  -0.115868
    C   C15   0.545250  0.653100  0.226090  -0.082509
    C   C16   0.580730  0.678000  0.294610  -0.021800
    C   C17   0.656600  0.650000  0.315760  -0.107204
    C   C18   0.696400  0.600500  0.269100  -0.216560
    C   C19   0.660970  0.577500  0.200460  0.045886
    C   C20   0.443100  0.848900  0.363140  0.423199
    C   C21   0.483100  0.799700  0.316730  -0.460930
    C   C22   0.537790  0.732900  0.343550  0.288843
    C   C23   0.550500  0.723900  0.417460  -0.287535
    C   C24   0.753320  0.324600  0.931780  0.365364
    C   C25   0.507800  0.776400  0.460110  0.232534
    C   C26   0.032230  0.566000  0.098920  0.617010
    C   C27   0.063040  0.579000  0.177690  0.005329
    C   C28   0.022070  0.630900  0.222440  -0.121950
    C   C29   0.051460  0.648600  0.293930  0.091930
    C   C30   0.123100  0.611200  0.320040  -0.184896
    C   C31   0.163100  0.557500  0.276200  -0.086172
    C   C32   0.133900  0.541200  0.204670  -0.102370
    C   C33   0.891930  0.756500  0.382770  0.195517
    C   C34   0.929040  0.700500  0.338360  -0.293008
    C   C35   0.453920  0.422000  0.896010  0.624008
    C   C36   0.008630  0.706300  0.340630  0.139093
    C   C37   0.046700  0.769300  0.389730  -0.267924
    C   C38   0.005400  0.824000  0.431260  0.275213
    C   C39   0.292130  0.438300  0.111740  0.648334
    C   C40   0.322720  0.430100  0.191110  -0.046906
    C   C41   0.283060  0.378100  0.236900  -0.023444
    C   C42   0.311460  0.367900  0.310020  0.065909
    C   C43   0.380400  0.412400  0.336160  -0.202656
    C   C44   0.419000  0.465800  0.290900  -0.113568
    C   C45   0.391060  0.474500  0.218060  -0.100845
    C   C46   0.415050  0.396700  0.821270  -0.115826
    C   C47   0.153290  0.249000  0.395490  0.197597
    C   C48   0.189100  0.306900  0.351030  -0.258374
    C   C49   0.269080  0.310500  0.357800  0.114867
    C   C50   0.307980  0.254200  0.411130  -0.259610
    C   C51   0.268100  0.196900  0.452670  0.276749
    C   C52   0.777890  0.433300  0.098020  0.650766
    C   C53   0.812000  0.416200  0.175900  0.055311
    C   C54   0.771810  0.365100  0.221340  -0.128560
    C   C55   0.802800  0.347500  0.292670  0.060499
    C   C56   0.875800  0.382300  0.316600  -0.258762
    C   C57   0.454750  0.346900  0.773910  -0.082572
    C   C58   0.915400  0.434800  0.271900  0.001386
    C   C59   0.883900  0.452700  0.201320  -0.156192
    C   C60   0.642600  0.250500  0.387420  0.245169
    C   C61   0.680600  0.304800  0.341870  -0.379982
    C   C62   0.759410  0.292800  0.341020  0.260139
    C   C63   0.795600  0.227400  0.389140  -0.367057
    C   C64   0.753320  0.175400  0.431780  0.365370
    C   C65   0.453920  0.078000  0.396010  0.624008
    C   C66   0.415050  0.103300  0.321270  -0.115845
    C   C67   0.454750  0.153100  0.273910  -0.082554
    C   C68   0.419270  0.322000  0.705390  -0.021732
    C   C69   0.419270  0.178000  0.205390  -0.021733
    C   C70   0.343400  0.150000  0.184240  -0.107241
    C   C71   0.303600  0.100500  0.230900  -0.216527
    C   C72   0.339030  0.077500  0.299540  0.045875
    C   C73   0.556900  0.348900  0.136860  0.423221
    C   C74   0.516900  0.299700  0.183270  -0.460983
    C   C75   0.462210  0.232900  0.156450  0.288819
    C   C76   0.449500  0.223900  0.082540  -0.287488
    C   C77   0.492200  0.276400  0.039890  0.232488
    C   C78   0.967770  0.066000  0.401080  0.617054
    C   C79   0.343400  0.350000  0.684240  -0.107241
    C   C80   0.936960  0.079000  0.322310  0.005315
    C   C81   0.977930  0.130900  0.277560  -0.121949
    C   C82   0.948540  0.148600  0.206070  0.091916
    C   C83   0.876900  0.111200  0.179960  -0.184894
    C   C84   0.836900  0.057500  0.223800  -0.086149
    C   C85   0.866100  0.041200  0.295330  -0.102382
    C   C86   0.108070  0.256500  0.117230  0.195529
    C   C87   0.070960  0.200500  0.161640  -0.293028
    C   C88   0.991370  0.206300  0.159370  0.139107
    C   C89   0.953300  0.269300  0.110270  -0.267926
    C   C90   0.303600  0.399500  0.730900  -0.216515
    C   C91   0.994600  0.324000  0.068740  0.275211
    C   C92   0.707870  0.938300  0.388260  0.648311
    C   C93   0.677280  0.930100  0.308890  -0.046749
    C   C94   0.716940  0.878100  0.263100  -0.023586
    C   C95   0.688540  0.867900  0.189980  0.066045
    C   C96   0.619600  0.912400  0.163840  -0.202914
    C   C97   0.581000  0.965800  0.209100  -0.113124
    C   C98   0.608940  0.974500  0.281940  -0.101155
    C   C99   0.846710  0.749000  0.104510  0.197624
    C   C100  0.810900  0.806900  0.148970  -0.258413
    C   C101  0.339030  0.422500  0.799540  0.045856
    C   C102  0.730920  0.810500  0.142200  0.114881
    C   C103  0.692020  0.754200  0.088870  -0.259630
    C   C104  0.731900  0.696900  0.047330  0.276766
    C   C105  0.812000  0.083800  0.675900  0.055318
    C   C106  0.556900  0.151100  0.636860  0.423212
    C   C107  0.516900  0.200300  0.683270  -0.460982
    C   C108  0.462210  0.267100  0.656450  0.288823
    C   C109  0.449500  0.276100  0.582540  -0.287496
    C   C110  0.492200  0.223600  0.539890  0.232501
    C   C111  0.967770  0.434000  0.901080  0.617036
    C   C112  0.936960  0.421000  0.822310  0.005320
    C   C113  0.977930  0.369100  0.777560  -0.121952
    C   C114  0.948540  0.351400  0.706070  0.091917
    C   C115  0.876900  0.388800  0.679960  -0.184895
    C   C116  0.771810  0.134900  0.721340  -0.128568
    C   C117  0.836900  0.442500  0.723800  -0.086143
    C   C118  0.866100  0.458800  0.795330  -0.102390
    C   C119  0.108070  0.243500  0.617230  0.195537
    C   C120  0.070960  0.299500  0.661640  -0.293032
    C   C121  0.991370  0.293700  0.659370  0.139106
    C   C122  0.953300  0.230700  0.610270  -0.267921
    C   C123  0.994600  0.176000  0.568740  0.275219
    C   C124  0.707870  0.561700  0.888260  0.648311
    C   C125  0.677280  0.569900  0.808890  -0.046742
    C   C126  0.716940  0.621900  0.763100  -0.023583
    C   C127  0.802800  0.152500  0.792670  0.060503
    C   C128  0.688540  0.632100  0.689980  0.066034
    C   C129  0.619600  0.587600  0.663840  -0.202912
    C   C130  0.581000  0.534200  0.709100  -0.113116
    C   C131  0.608940  0.525500  0.781940  -0.101172
    C   C132  0.846710  0.751000  0.604510  0.197614
    C   C133  0.810900  0.693100  0.648970  -0.258418
    C   C134  0.730920  0.689500  0.642200  0.114892
    C   C135  0.692020  0.745800  0.588870  -0.259636
    C   C136  0.731900  0.803100  0.547330  0.276763
    C   C137  0.222110  0.566700  0.901980  0.650785
    C   C138  0.875800  0.117700  0.816600  -0.258764
    C   C139  0.188000  0.583800  0.824100  0.055326
    C   C140  0.228190  0.634900  0.778660  -0.128586
    C   C141  0.197200  0.652500  0.707330  0.060532
    C   C142  0.124200  0.617700  0.683400  -0.258788
    C   C143  0.084600  0.565200  0.728100  0.001419
    C   C144  0.116100  0.547300  0.798680  -0.156233
    C   C145  0.357400  0.749500  0.612580  0.245155
    C   C146  0.319400  0.695200  0.658130  -0.379957
    C   C147  0.240590  0.707200  0.658980  0.260077
    C   C148  0.204400  0.772600  0.610860  -0.366955
    C   C149  0.915400  0.065200  0.771900  0.001382
    C   C150  0.246680  0.824600  0.568220  0.365346
    C   C151  0.546080  0.922000  0.603990  0.624007
    C   C152  0.584950  0.896700  0.678730  -0.115889
    C   C153  0.545250  0.846900  0.726090  -0.082490
    C   C154  0.580730  0.822000  0.794610  -0.021803
    C   C155  0.656600  0.850000  0.815760  -0.107202
    C   C156  0.696400  0.899500  0.769100  -0.216574
    C   C157  0.660970  0.922500  0.700460  0.045907
    C   C158  0.443100  0.651100  0.863140  0.423203
    C   C159  0.483100  0.700300  0.816730  -0.460930
    C   C160  0.883900  0.047300  0.701320  -0.156184
    C   C161  0.537790  0.767100  0.843550  0.288840
    C   C162  0.550500  0.776100  0.917460  -0.287526
    C   C163  0.507800  0.723600  0.960110  0.232520
    C   C164  0.032230  0.934000  0.598920  0.617086
    C   C165  0.063040  0.921000  0.677690  0.005274
    C   C166  0.022070  0.869100  0.722440  -0.121915
    C   C167  0.051460  0.851400  0.793930  0.091918
    C   C168  0.123100  0.888800  0.820040  -0.184886
    C   C169  0.163100  0.942500  0.776200  -0.086186
    C   C170  0.133900  0.958800  0.704670  -0.102337
    C   C171  0.642600  0.249500  0.887420  0.245169
    C   C172  0.891930  0.743500  0.882770  0.195514
    C   C173  0.929040  0.799500  0.838360  -0.293002
    C   C174  0.008630  0.793700  0.840630  0.139088
    C   C175  0.046700  0.730700  0.889730  -0.267914
    C   C176  0.005400  0.676000  0.931260  0.275186
    C   C177  0.292130  0.061700  0.611740  0.648338
    C   C178  0.322720  0.069900  0.691110  -0.046918
    C   C179  0.283060  0.121900  0.736900  -0.023444
    C   C180  0.311460  0.132100  0.810020  0.065918
    C   C181  0.380400  0.087600  0.836160  -0.202656
    C   C182  0.680600  0.195200  0.841870  -0.379982
    C   C183  0.419000  0.034200  0.790900  -0.113578
    C   C184  0.391060  0.025500  0.718060  -0.100825
    C   C185  0.153290  0.251000  0.895490  0.197605
    C   C186  0.189100  0.193100  0.851030  -0.258368
    C   C187  0.269080  0.189500  0.857800  0.114854
    C   C188  0.307980  0.245800  0.911130  -0.259599
    C   C189  0.268100  0.303100  0.952670  0.276744
    C   C190  0.222110  0.933300  0.401980  0.650787
    C   C191  0.188000  0.916200  0.324100  0.055328
    C   C192  0.228190  0.865100  0.278660  -0.128573
    H   H1    0.722800  0.158300  0.704000  0.072707
    H   H2    0.319300  0.335000  0.637900  0.112135
    H   H3    0.910900  0.489000  0.171100  0.083906
    H   H4    0.589500  0.259900  0.387200  0.039180
    H   H5    0.653400  0.349500  0.311700  0.150301
    H   H6    0.849000  0.218700  0.392500  0.162876
    H   H7    0.779100  0.130500  0.462600  0.016546
    H   H8    0.506200  0.170200  0.288200  0.108275
    H   H9    0.319300  0.165000  0.137900  0.112137
    H   H10   0.252500  0.082200  0.216300  0.135811
    H   H11   0.311500  0.044500  0.331300  0.083117
    H   H12   0.593300  0.393300  0.156400  0.014100
    H   H13   0.252500  0.417800  0.716300  0.135808
    H   H14   0.526400  0.311100  0.233000  0.207435
    H   H15   0.411800  0.182200  0.061200  0.098371
    H   H16   0.482000  0.268900  0.989800  0.065815
    H   H17   0.026500  0.154700  0.295800  0.116611
    H   H18   0.855700  0.122800  0.132100  0.103887
    H   H19   0.789200  0.031600  0.205000  0.103736
    H   H20   0.838300  0.005100  0.325000  0.078317
    H   H21   0.161700  0.251300  0.119600  0.074207
    H   H22   0.099200  0.158500  0.193400  0.130983
    H   H23   0.899500  0.274300  0.105600  0.145190
    H   H24   0.311500  0.455500  0.831300  0.083124
    H   H25   0.967900  0.367600  0.037400  0.039235
    H   H26   0.763500  0.849200  0.281300  0.099519
    H   H27   0.599400  0.905900  0.115200  0.117826
    H   H28   0.535300  0.996600  0.190600  0.101035
    H   H29   0.581900  0.010000  0.312600  0.108835
    H   H30   0.900700  0.749100  0.109500  0.060768
    H   H31   0.840400  0.843700  0.183700  0.123235
    H   H32   0.638000  0.755200  0.081000  0.171219
    H   H33   0.703800  0.658900  0.012400  0.056542
    H   H34   0.593300  0.106700  0.656400  0.014103
    H   H35   0.526400  0.188900  0.733000  0.207433
    H   H36   0.411800  0.317800  0.561200  0.098373
    H   H37   0.482000  0.231100  0.489800  0.065805
    H   H38   0.026500  0.345300  0.795800  0.116609
    H   H39   0.855700  0.377200  0.632100  0.103887
    H   H40   0.789200  0.468400  0.705000  0.103733
    H   H41   0.898300  0.130200  0.863900  0.128331
    H   H42   0.838300  0.494900  0.825000  0.078323
    H   H43   0.161700  0.248700  0.619600  0.074202
    H   H44   0.099200  0.341500  0.693400  0.130986
    H   H45   0.899500  0.225700  0.605600  0.145187
    H   H46   0.967900  0.132400  0.537400  0.039228
    H   H47   0.763500  0.650800  0.781300  0.099519
    H   H48   0.599400  0.594100  0.615200  0.117825
    H   H49   0.535300  0.503400  0.690600  0.101032
    H   H50   0.581900  0.490000  0.812600  0.108845
    H   H51   0.900700  0.750900  0.609500  0.060773
    H   H52   0.964200  0.041300  0.789300  0.077507
    H   H53   0.840400  0.656300  0.683700  0.123237
    H   H54   0.638000  0.744800  0.581000  0.171223
    H   H55   0.703800  0.841100  0.512400  0.056540
    H   H56   0.277200  0.658300  0.796000  0.072718
    H   H57   0.101700  0.630200  0.636100  0.128343
    H   H58   0.035800  0.541300  0.710700  0.077494
    H   H59   0.089100  0.511000  0.828900  0.083927
    H   H60   0.410500  0.740100  0.612800  0.039179
    H   H61   0.346600  0.650500  0.688300  0.150300
    H   H62   0.151000  0.781300  0.607500  0.162812
    H   H63   0.910900  0.011000  0.671100  0.083895
    H   H64   0.220900  0.869500  0.537400  0.016552
    H   H65   0.493800  0.829800  0.711800  0.108267
    H   H66   0.680700  0.835000  0.862100  0.112134
    H   H67   0.747500  0.917800  0.783700  0.135823
    H   H68   0.688500  0.955500  0.668700  0.083119
    H   H69   0.406700  0.606700  0.843600  0.014096
    H   H70   0.473600  0.688900  0.767000  0.207390
    H   H71   0.588200  0.817800  0.938800  0.098383
    H   H72   0.518000  0.731100  0.010200  0.065791
    H   H73   0.973500  0.845300  0.704200  0.116599
    H   H74   0.589500  0.240100  0.887200  0.039181
    H   H75   0.144300  0.877200  0.867900  0.103884
    H   H76   0.210800  0.968400  0.795000  0.103759
    H   H77   0.161700  0.994900  0.675000  0.078293
    H   H78   0.838300  0.748700  0.880400  0.074215
    H   H79   0.900800  0.841500  0.806600  0.130972
    H   H80   0.100500  0.725700  0.894400  0.145193
    H   H81   0.032100  0.632400  0.962600  0.039246
    H   H82   0.236500  0.150800  0.718700  0.099490
    H   H83   0.400600  0.094100  0.884800  0.117781
    H   H84   0.464700  0.003400  0.809400  0.101177
    H   H85   0.653400  0.150500  0.811700  0.150302
    H   H86   0.418100  0.990000  0.687400  0.108743
    H   H87   0.099300  0.250900  0.890500  0.060776
    H   H88   0.159600  0.156300  0.816300  0.123217
    H   H89   0.362000  0.244800  0.919000  0.171199
    H   H90   0.296200  0.341100  0.987600  0.056548
    H   H91   0.277200  0.841700  0.296000  0.072716
    H   H92   0.101700  0.869800  0.136100  0.128329
    H   H93   0.035800  0.958700  0.210700  0.077500
    H   H94   0.089100  0.989000  0.328900  0.083917
    H   H95   0.410500  0.759900  0.112800  0.039177
    H   H96   0.849000  0.281300  0.892500  0.162875
    H   H97   0.346600  0.849500  0.188300  0.150306
    H   H98   0.151000  0.718700  0.107500  0.162870
    H   H99   0.220900  0.630500  0.037400  0.016536
    H   H100  0.493800  0.670200  0.211800  0.108275
    H   H101  0.680700  0.665000  0.362100  0.112134
    H   H102  0.747500  0.582200  0.283700  0.135819
    H   H103  0.688500  0.544500  0.168700  0.083127
    H   H104  0.406700  0.893300  0.343600  0.014097
    H   H105  0.473600  0.811100  0.267000  0.207389
    H   H106  0.588200  0.682200  0.438800  0.098386
    H   H107  0.779100  0.369500  0.962600  0.016545
    H   H108  0.518000  0.768900  0.510200  0.065781
    H   H109  0.973500  0.654700  0.204200  0.116604
    H   H110  0.144300  0.622800  0.367900  0.103886
    H   H111  0.210800  0.531600  0.295000  0.103756
    H   H112  0.161700  0.505100  0.175000  0.078308
    H   H113  0.838300  0.751300  0.380400  0.074213
    H   H114  0.900800  0.658500  0.306600  0.130976
    H   H115  0.100500  0.774300  0.394400  0.145192
    H   H116  0.032100  0.867600  0.462600  0.039239
    H   H117  0.236500  0.349200  0.218700  0.099490
    H   H118  0.506200  0.329800  0.788200  0.108283
    H   H119  0.400600  0.405900  0.384800  0.117781
    H   H120  0.464700  0.496600  0.309400  0.101174
    H   H121  0.418100  0.510000  0.187400  0.108753
    H   H122  0.099300  0.249100  0.390500  0.060779
    H   H123  0.159600  0.343700  0.316300  0.123220
    H   H124  0.362000  0.255200  0.419000  0.171204
    H   H125  0.296200  0.158900  0.487600  0.056544
    H   H126  0.722800  0.341700  0.204000  0.072702
    H   H127  0.898300  0.369800  0.363900  0.128331
    H   H128  0.964200  0.458700  0.289300  0.077504
    Mn  Mn1   0.616250  0.428770  0.995030  1.202970
    Mn  Mn2   0.868090  0.576650  0.995260  1.233469
    Mn  Mn3   0.383750  0.928770  0.504970  1.202972
    Mn  Mn4   0.131910  0.076650  0.504740  1.233495
    Mn  Mn5   0.383750  0.571230  0.004970  1.202964
    Mn  Mn6   0.131910  0.423350  0.004740  1.233479
    Mn  Mn7   0.616250  0.071230  0.495030  1.202979
    Mn  Mn8   0.868090  0.923350  0.495260  1.233483
    N   N1    0.677340  0.314500  0.931750  -0.471401
    N   N2    0.453330  0.836900  0.434660  -0.524164
    N   N3    0.928440  0.818140  0.429310  -0.437847
    N   N4    0.191070  0.192790  0.445420  -0.468253
    N   N5    0.677340  0.185500  0.431750  -0.471406
    N   N6    0.546670  0.336900  0.065340  -0.524168
    N   N7    0.071560  0.318140  0.070690  -0.437840
    N   N8    0.808930  0.692790  0.054580  -0.468266
    N   N9    0.546670  0.163100  0.565340  -0.524167
    N   N10   0.071560  0.181860  0.570690  -0.437852
    N   N11   0.808930  0.807210  0.554580  -0.468253
    N   N12   0.322660  0.814500  0.568250  -0.471406
    N   N13   0.453330  0.663100  0.934660  -0.524162
    N   N14   0.928440  0.681860  0.929310  -0.437830
    N   N15   0.191070  0.307210  0.945420  -0.468261
    N   N16   0.322660  0.685500  0.068250  -0.471415
    O   O1    0.819020  0.025260  0.558420  -0.608746
    O   O2    0.288320  0.597450  0.920370  -0.665988
    O   O3    0.586790  0.956870  0.560710  -0.621707
    O   O4    0.475850  0.903720  0.591010  -0.595626
    O   O5    0.076400  0.967870  0.558640  -0.564475
    O   O6    0.964710  0.906540  0.579970  -0.646124
    O   O7    0.335590  0.028390  0.570430  -0.571783
    O   O8    0.224850  0.090360  0.592900  -0.683846
    O   O9    0.180980  0.974740  0.441580  -0.608756
    O   O10   0.288320  0.902550  0.420370  -0.666000
    O   O11   0.586790  0.543130  0.060710  -0.621709
    O   O12   0.711680  0.097450  0.579630  -0.665986
    O   O13   0.475850  0.596280  0.091010  -0.595640
    O   O14   0.076400  0.532130  0.058640  -0.564451
    O   O15   0.964710  0.593460  0.079970  -0.646088
    O   O16   0.335590  0.471610  0.070430  -0.571776
    O   O17   0.224850  0.409640  0.092900  -0.683855
    O   O18   0.819020  0.474740  0.058420  -0.608748
    O   O19   0.711680  0.402550  0.079630  -0.665973
    O   O20   0.413210  0.043130  0.439290  -0.621684
    O   O21   0.524150  0.096280  0.408990  -0.595667
    O   O22   0.923600  0.032130  0.441360  -0.564459
    O   O23   0.413210  0.456870  0.939290  -0.621687
    O   O24   0.035290  0.093460  0.420030  -0.646134
    O   O25   0.664410  0.971610  0.429570  -0.571761
    O   O26   0.775150  0.909640  0.407100  -0.683866
    O   O27   0.524150  0.403720  0.908990  -0.595680
    O   O28   0.923600  0.467870  0.941360  -0.564444
    O   O29   0.035290  0.406540  0.920030  -0.646118
    O   O30   0.664410  0.528390  0.929570  -0.571754
    O   O31   0.775150  0.590360  0.907100  -0.683876
    O   O32   0.180980  0.525260  0.941580  -0.608750
