# Generated by REPEAT Assigner based on pymatgen
data_DB12-NADZID_clean
_audit_creation_date              2022-05-24
_audit_creation_method            REPEAT_Assigner
_cell_length_a                    8.832600
_cell_length_b                    10.159000
_cell_length_c                    13.979000
_cell_angle_alpha                 90.000000
_cell_angle_beta                  90.000000
_cell_angle_gamma                 90.000000
_cell_volume                      1254.341030
_symmetry_space_group_name_H-M    P1
_symmetry_Int_Tables_number       1
loop_
    _symmetry_equiv_pos_site_id
    _symmetry_equiv_pos_as_xyz
    1  x,y,z
loop_
    _atom_site_type_symbol
    _atom_site_label
    _atom_site_fract_x
    _atom_site_fract_y
    _atom_site_fract_z
    _atom_type_partial_charge
    Y  Y1   0.749890  0.499930  0.886790  1.863924
    Y  Y2   0.750110  0.999930  0.613210  1.863916
    Y  Y3   0.250110  0.500070  0.113210  1.863890
    Y  Y4   0.249890  0.000070  0.386790  1.863945
    H  H1   0.402100  0.656800  0.877200  0.057555
    H  H2   0.008100  0.750300  0.751200  0.066748
    H  H3   0.402300  0.842800  0.622100  0.073402
    H  H4   0.097900  0.156800  0.622800  0.057581
    H  H5   0.491900  0.250300  0.748800  0.066737
    H  H6   0.097700  0.342800  0.877900  0.073402
    H  H7   0.597900  0.343200  0.122800  0.057576
    H  H8   0.991900  0.249700  0.248800  0.066738
    H  H9   0.597700  0.157200  0.377900  0.073403
    H  H10  0.902100  0.843200  0.377200  0.057564
    H  H11  0.508100  0.749700  0.251200  0.066746
    H  H12  0.902300  0.657200  0.122100  0.073400
    C  C1   0.106100  0.636300  0.907900  0.851957
    C  C2   0.191200  0.695900  0.826700  -0.213822
    C  C3   0.349100  0.695200  0.827000  0.007369
    C  C4   0.426500  0.753300  0.750400  -0.116545
    C  C5   0.106100  0.865800  0.591400  0.815554
    C  C6   0.192400  0.803200  0.673800  -0.202428
    C  C7   0.113400  0.749600  0.751000  0.043123
    C  C8   0.349800  0.806200  0.673200  0.027232
    C  C9   0.598000  0.759000  0.755800  0.566030
    C  C10  0.393900  0.136300  0.592100  0.851940
    C  C11  0.308800  0.195900  0.673300  -0.213801
    C  C12  0.150900  0.195200  0.673000  0.007326
    C  C13  0.073500  0.253300  0.749600  -0.116520
    C  C14  0.393900  0.365800  0.908600  0.815498
    C  C15  0.307600  0.303200  0.826200  -0.202400
    C  C16  0.386600  0.249600  0.749000  0.043115
    C  C17  0.150200  0.306200  0.826800  0.027218
    C  C18  0.902000  0.259000  0.744200  0.566026
    C  C19  0.893900  0.363700  0.092100  0.851926
    C  C20  0.808800  0.304100  0.173300  -0.213788
    C  C21  0.650900  0.304800  0.173000  0.007324
    C  C22  0.573500  0.246700  0.249600  -0.116525
    C  C23  0.893900  0.134200  0.408600  0.815536
    C  C24  0.807600  0.196800  0.326200  -0.202422
    C  C25  0.886600  0.250400  0.249000  0.043115
    C  C26  0.650200  0.193800  0.326800  0.027233
    C  C27  0.402000  0.241000  0.244200  0.566023
    C  C28  0.606100  0.863700  0.407900  0.851944
    C  C29  0.691200  0.804100  0.326700  -0.213814
    C  C30  0.849100  0.804800  0.327000  0.007350
    C  C31  0.926500  0.746700  0.250400  -0.116523
    C  C32  0.606100  0.634200  0.091400  0.815546
    C  C33  0.692400  0.696800  0.173800  -0.202422
    C  C34  0.613400  0.750400  0.251000  0.043122
    C  C35  0.849800  0.693800  0.173200  0.027220
    C  C36  0.098000  0.741000  0.255800  0.566017
    O  O1   0.972700  0.602500  0.893700  -0.771448
    O  O2   0.665700  0.674500  0.808200  -0.554279
    O  O3   0.972700  0.898800  0.606500  -0.738384
    O  O4   0.174000  0.622000  0.986100  -0.607722
    O  O5   0.174000  0.877900  0.514300  -0.607638
    O  O6   0.664500  0.825200  0.692200  -0.560628
    O  O7   0.527300  0.102500  0.606300  -0.771428
    O  O8   0.834300  0.174500  0.691800  -0.554285
    O  O9   0.527300  0.398800  0.893500  -0.738351
    O  O10  0.326000  0.122000  0.513900  -0.607730
    O  O11  0.326000  0.377900  0.985700  -0.607614
    O  O12  0.835500  0.325200  0.807800  -0.560627
    O  O13  0.027300  0.397500  0.106300  -0.771421
    O  O14  0.334300  0.325500  0.191800  -0.554262
    O  O15  0.027300  0.101200  0.393500  -0.738365
    O  O16  0.826000  0.378000  0.013900  -0.607727
    O  O17  0.826000  0.122100  0.485700  -0.607636
    O  O18  0.335500  0.174800  0.307800  -0.560642
    O  O19  0.472700  0.897500  0.393700  -0.771445
    O  O20  0.165700  0.825500  0.308200  -0.554289
    O  O21  0.472700  0.601200  0.106500  -0.738382
    O  O22  0.674000  0.878000  0.486100  -0.607720
    O  O23  0.674000  0.622100  0.014300  -0.607624
    O  O24  0.164500  0.674800  0.192200  -0.560612
