# Generated by REPEAT Assigner based on pymatgen
data_DB12-FAPXIG_clean
_audit_creation_date              2022-05-24
_audit_creation_method            REPEAT_Assigner
_cell_length_a                    15.041800
_cell_length_b                    15.041800
_cell_length_c                    11.961100
_cell_angle_alpha                 90.000000
_cell_angle_beta                  90.000000
_cell_angle_gamma                 90.000000
_cell_volume                      2706.267618
_symmetry_space_group_name_H-M    P1
_symmetry_Int_Tables_number       1
loop_
    _symmetry_equiv_pos_site_id
    _symmetry_equiv_pos_as_xyz
    1  x,y,z
loop_
    _atom_site_type_symbol
    _atom_site_label
    _atom_site_fract_x
    _atom_site_fract_y
    _atom_site_fract_z
    _atom_type_partial_charge
    O  O1   0.876100  0.133600  0.236100  -0.692597
    O  O2   0.843900  0.039500  0.372900  -0.673528
    C  C1   0.838800  0.118800  0.331800  0.809095
    C  C2   0.793700  0.187600  0.389900  -0.084843
    C  C3   0.749500  0.253300  0.330800  -0.095256
    C  C4   0.793800  0.189000  0.505600  -0.107168
    C  C5   0.705500  0.320400  0.387500  -0.098709
    H  H1   0.749400  0.252300  0.253100  0.147349
    C  C6   0.749700  0.256100  0.562260  0.045398
    H  H2   0.823400  0.144900  0.545300  0.128403
    C  C7   0.705600  0.321800  0.503200  -0.080530
    C  C8   0.660200  0.387700  0.326900  0.686082
    H  H3   0.676000  0.366800  0.541300  0.120243
    O  O3   0.642700  0.463800  0.372300  -0.531369
    O  O4   0.635200  0.374900  0.224700  -0.533176
    O  O5   0.123900  0.866400  0.736100  -0.692600
    O  O6   0.156100  0.960500  0.872900  -0.673523
    C  C9   0.161200  0.881200  0.831800  0.809075
    C  C10  0.206300  0.812400  0.889900  -0.084814
    C  C11  0.250500  0.746700  0.830800  -0.095263
    C  C12  0.206200  0.811000  0.005600  -0.107208
    C  C13  0.294500  0.679600  0.887500  -0.098715
    H  H4   0.250600  0.747700  0.753100  0.147349
    C  C14  0.250300  0.743900  0.062260  0.045405
    H  H5   0.176600  0.855100  0.045300  0.128427
    C  C15  0.294400  0.678200  0.003200  -0.080516
    C  C16  0.339800  0.612300  0.826900  0.686087
    H  H6   0.324000  0.633200  0.041300  0.120234
    O  O7   0.357300  0.536200  0.872300  -0.531387
    O  O8   0.364800  0.625100  0.724700  -0.533174
    O  O9   0.866400  0.876100  0.486100  -0.692564
    O  O10  0.960500  0.843900  0.622900  -0.673506
    C  C17  0.881200  0.838800  0.581800  0.809085
    C  C18  0.812400  0.793700  0.639900  -0.084725
    C  C19  0.746700  0.749500  0.580800  -0.095431
    C  C20  0.811000  0.793800  0.755600  -0.107433
    C  C21  0.679600  0.705500  0.637500  -0.098066
    H  H7   0.747700  0.749400  0.503100  0.147384
    C  C22  0.743900  0.749700  0.812260  0.046030
    H  H8   0.855100  0.823400  0.795300  0.128460
    C  C23  0.678200  0.705600  0.753200  -0.081383
    C  C24  0.612300  0.660200  0.576900  0.685433
    H  H9   0.633200  0.676000  0.791300  0.120598
    O  O11  0.536200  0.642700  0.622300  -0.531073
    O  O12  0.625100  0.635200  0.474700  -0.533050
    O  O13  0.133600  0.123900  0.986100  -0.692562
    O  O14  0.039500  0.156100  0.122900  -0.673504
    C  C25  0.118800  0.161200  0.081800  0.809093
    C  C26  0.187600  0.206300  0.139900  -0.084748
    C  C27  0.253300  0.250500  0.080800  -0.095428
    C  C28  0.189000  0.206200  0.255600  -0.107409
    C  C29  0.320400  0.294500  0.137500  -0.098060
    H  H10  0.252300  0.250600  0.003100  0.147382
    C  C30  0.256100  0.250300  0.312260  0.046012
    H  H11  0.144900  0.176600  0.295300  0.128453
    C  C31  0.321800  0.294400  0.253200  -0.081385
    C  C32  0.387700  0.339800  0.076900  0.685424
    H  H12  0.366800  0.324000  0.291300  0.120603
    O  O15  0.463800  0.357300  0.122300  -0.531070
    O  O16  0.374900  0.364800  0.974700  -0.533043
    O  O17  0.123900  0.133600  0.763900  -0.692594
    O  O18  0.156100  0.039500  0.627100  -0.673519
    C  C33  0.161200  0.118800  0.668200  0.809084
    C  C34  0.206300  0.187600  0.610100  -0.084834
    C  C35  0.250500  0.253300  0.669200  -0.095260
    C  C36  0.206200  0.189000  0.494400  -0.107185
    C  C37  0.294500  0.320400  0.612500  -0.098708
    H  H13  0.250600  0.252300  0.746900  0.147349
    C  C38  0.250300  0.256100  0.437740  0.045406
    H  H14  0.176600  0.144900  0.454700  0.128414
    C  C39  0.294400  0.321800  0.496800  -0.080531
    C  C40  0.339800  0.387700  0.673100  0.686077
    H  H15  0.324000  0.366800  0.458700  0.120243
    O  O19  0.357300  0.463800  0.627700  -0.531378
    O  O20  0.364800  0.374900  0.775300  -0.533178
    O  O21  0.876100  0.866400  0.263900  -0.692597
    O  O22  0.843900  0.960500  0.127100  -0.673524
    C  C41  0.838800  0.881200  0.168200  0.809080
    C  C42  0.793700  0.812400  0.110100  -0.084818
    C  C43  0.749500  0.746700  0.169200  -0.095261
    C  C44  0.793800  0.811000  0.994400  -0.107198
    C  C45  0.705500  0.679600  0.112500  -0.098714
    H  H16  0.749400  0.747700  0.246900  0.147350
    C  C46  0.749700  0.743900  0.937740  0.045398
    H  H17  0.823400  0.855100  0.954700  0.128419
    C  C47  0.705600  0.678200  0.996800  -0.080517
    C  C48  0.660200  0.612300  0.173100  0.686091
    H  H18  0.676000  0.633200  0.958700  0.120233
    O  O23  0.642700  0.536200  0.127700  -0.531382
    O  O24  0.635200  0.625100  0.275300  -0.533174
    O  O25  0.133600  0.876100  0.513900  -0.692565
    O  O26  0.039500  0.843900  0.377100  -0.673510
    C  C49  0.118800  0.838800  0.418200  0.809104
    C  C50  0.187600  0.793700  0.360100  -0.084756
    C  C51  0.253300  0.749500  0.419200  -0.095421
    C  C52  0.189000  0.793800  0.244400  -0.107398
    C  C53  0.320400  0.705500  0.362500  -0.098061
    H  H19  0.252300  0.749400  0.496900  0.147380
    C  C54  0.256100  0.749700  0.187740  0.046017
    H  H20  0.144900  0.823400  0.204700  0.128441
    C  C55  0.321800  0.705600  0.246800  -0.081384
    C  C56  0.387700  0.660200  0.423100  0.685421
    H  H21  0.366800  0.676000  0.208700  0.120604
    O  O27  0.463800  0.642700  0.377700  -0.531056
    O  O28  0.374900  0.635200  0.525300  -0.533048
    O  O29  0.866400  0.123900  0.013900  -0.692566
    O  O30  0.960500  0.156100  0.877100  -0.673506
    C  C57  0.881200  0.161200  0.918200  0.809084
    C  C58  0.812400  0.206300  0.860100  -0.084724
    C  C59  0.746700  0.250500  0.919200  -0.095434
    C  C60  0.811000  0.206200  0.744400  -0.107436
    C  C61  0.679600  0.294500  0.862500  -0.098069
    H  H22  0.747700  0.250600  0.996900  0.147384
    C  C62  0.743900  0.250300  0.687740  0.046024
    H  H23  0.855100  0.176600  0.704700  0.128468
    C  C63  0.678200  0.294400  0.746800  -0.081380
    C  C64  0.612300  0.339800  0.923100  0.685440
    H  H24  0.633200  0.324000  0.708700  0.120598
    O  O31  0.536200  0.357300  0.877700  -0.531085
    O  O32  0.625100  0.364800  0.025300  -0.533050
    V  V1   0.936000  0.064000  0.125000  2.044024
    V  V2   0.064000  0.936000  0.625000  2.043996
    V  V3   0.936000  0.936000  0.375000  2.043921
    V  V4   0.064000  0.064000  0.875000  2.043845
    O  O33  0.976600  0.000000  0.250000  -0.904054
    O  O34  0.023400  0.000000  0.750000  -0.904057
    O  O35  0.000000  0.976600  0.500000  -0.903988
    O  O36  0.000000  0.023400  0.000000  -0.903993
    V  V5   0.556000  0.556000  0.375000  1.437614
    V  V6   0.444000  0.444000  0.875000  1.437584
    V  V7   0.444000  0.556000  0.625000  1.437567
    V  V8   0.556000  0.444000  0.125000  1.437553
    O  O37  0.487800  0.500000  0.250000  -0.656795
    O  O38  0.512200  0.500000  0.750000  -0.656824
    O  O39  0.500000  0.487800  0.500000  -0.656485
    O  O40  0.500000  0.512200  0.000000  -0.656482
