# Generated by REPEAT Assigner based on pymatgen
data_DB12-EKOPOK_clean
_audit_creation_date              2022-05-24
_audit_creation_method            REPEAT_Assigner
_cell_length_a                    14.208600
_cell_length_b                    15.588300
_cell_length_c                    15.588300
_cell_angle_alpha                 78.012200
_cell_angle_beta                  62.887100
_cell_angle_gamma                 62.887100
_cell_volume                      2735.497808
_symmetry_space_group_name_H-M    P1
_symmetry_Int_Tables_number       1
loop_
    _symmetry_equiv_pos_site_id
    _symmetry_equiv_pos_as_xyz
    1  x,y,z
loop_
    _atom_site_type_symbol
    _atom_site_label
    _atom_site_fract_x
    _atom_site_fract_y
    _atom_site_fract_z
    _atom_type_partial_charge
    Ca  Ca1  0.547460  0.000000  0.405080  1.439920
    Ca  Ca2  0.952540  0.000000  0.594920  1.440468
    Ca  Ca3  0.047460  0.405080  0.000000  1.440035
    Ca  Ca4  0.452540  0.594920  0.000000  1.440391
    Cd  Cd1  0.232240  0.035530  0.500000  1.426020
    Cd  Cd2  0.767760  0.964470  0.500000  1.426699
    Cd  Cd3  0.267770  0.500000  0.964460  1.426690
    Cd  Cd4  0.732230  0.500000  0.035540  1.426027
    H   H1   0.601600  0.345600  0.273200  0.497235
    H   H2   0.446000  0.225200  0.399400  0.193716
    H   H3   0.488100  0.413800  0.182400  0.262872
    H   H4   0.278600  0.285300  0.229700  0.026729
    H   H5   0.220400  0.654400  0.726800  0.496091
    H   H6   0.070600  0.774800  0.600600  0.193356
    H   H7   0.084300  0.586200  0.817600  0.261862
    H   H8   0.793600  0.714700  0.770300  0.025446
    H   H9   0.125200  0.273200  0.654400  0.494408
    H   H10  0.154600  0.399400  0.774800  0.194440
    H   H11  0.329500  0.182400  0.586200  0.261312
    H   H12  0.491700  0.229700  0.714700  0.024866
    H   H13  0.052800  0.726800  0.345600  0.494415
    H   H14  0.328800  0.600600  0.225200  0.193995
    H   H15  0.098100  0.817600  0.413800  0.261940
    H   H16  0.436100  0.770300  0.285300  0.025524
    H   H17  0.720400  0.726800  0.654400  0.496028
    H   H18  0.570600  0.600600  0.774800  0.193372
    H   H19  0.584300  0.817600  0.586200  0.261980
    H   H20  0.293600  0.770300  0.714700  0.025374
    H   H21  0.101600  0.273200  0.345600  0.497213
    H   H22  0.946000  0.399400  0.225200  0.193739
    H   H23  0.988100  0.182400  0.413800  0.262747
    H   H24  0.778600  0.229700  0.285300  0.026799
    H   H25  0.552800  0.345600  0.726800  0.494800
    H   H26  0.828800  0.225200  0.600600  0.193900
    H   H27  0.598100  0.413800  0.817600  0.261891
    H   H28  0.936100  0.285300  0.770300  0.025463
    H   H29  0.625200  0.654400  0.273200  0.494112
    H   H30  0.654600  0.774800  0.399400  0.194495
    H   H31  0.829500  0.586200  0.182400  0.261391
    H   H32  0.991700  0.714700  0.229700  0.024927
    C   C1   0.304200  0.174300  0.380900  0.993111
    C   C2   0.353400  0.413390  0.109610  0.823359
    C   C3   0.354600  0.244050  0.322550  -0.364201
    C   C4   0.430000  0.258000  0.347200  -0.138498
    C   C5   0.480500  0.320600  0.294000  0.337490
    C   C6   0.455300  0.370780  0.217220  -0.352794
    C   C7   0.380700  0.356770  0.192030  -0.113134
    C   C8   0.329500  0.293800  0.245600  0.094330
    C   C9   0.859400  0.825700  0.619100  0.990116
    C   C10  0.876400  0.586610  0.890390  0.825135
    C   C11  0.921200  0.755950  0.677450  -0.360843
    C   C12  0.035200  0.742000  0.652800  -0.139457
    C   C13  0.095100  0.679400  0.706000  0.337008
    C   C14  0.043300  0.629220  0.782780  -0.352935
    C   C15  0.929500  0.643230  0.807970  -0.113762
    C   C16  0.868900  0.706200  0.754400  0.094557
    C   C17  0.314900  0.380900  0.825700  0.992676
    C   C18  0.536990  0.109610  0.586610  0.826488
    C   C19  0.322850  0.322550  0.755950  -0.362829
    C   C20  0.222800  0.347200  0.742000  -0.138976
    C   C21  0.225500  0.294000  0.679400  0.334773
    C   C22  0.327480  0.217220  0.629220  -0.348456
    C   C23  0.427270  0.192030  0.643230  -0.117480
    C   C24  0.424900  0.245600  0.706200  0.096869
    C   C25  0.521500  0.619100  0.174300  0.992655
    C   C26  0.233210  0.890390  0.413390  0.819481
    C   C27  0.401350  0.677450  0.244050  -0.364817
    C   C28  0.312000  0.652800  0.258000  -0.138270
    C   C29  0.198900  0.706000  0.320600  0.336074
    C   C30  0.173920  0.782780  0.370780  -0.350886
    C   C31  0.262530  0.807970  0.356770  -0.111934
    C   C32  0.376700  0.754400  0.293800  0.095283
    C   C33  0.359400  0.619100  0.825700  0.989896
    C   C34  0.376400  0.890390  0.586610  0.825001
    C   C35  0.421200  0.677450  0.755950  -0.360619
    C   C36  0.535200  0.652800  0.742000  -0.139789
    C   C37  0.595100  0.706000  0.679400  0.337315
    C   C38  0.543300  0.782780  0.629220  -0.353137
    C   C39  0.429500  0.807970  0.643230  -0.113478
    C   C40  0.368900  0.754400  0.706200  0.094402
    C   C41  0.804200  0.380900  0.174300  0.993303
    C   C42  0.853400  0.109610  0.413390  0.823392
    C   C43  0.854600  0.322550  0.244050  -0.364403
    C   C44  0.930000  0.347200  0.258000  -0.138140
    C   C45  0.980500  0.294000  0.320600  0.337056
    C   C46  0.955300  0.217220  0.370780  -0.352462
    C   C47  0.880700  0.192030  0.356770  -0.113310
    C   C48  0.829500  0.245600  0.293800  0.094362
    C   C49  0.021500  0.174300  0.619100  0.992624
    C   C50  0.733210  0.413390  0.890390  0.819568
    C   C51  0.901350  0.244050  0.677450  -0.364770
    C   C52  0.812000  0.258000  0.652800  -0.138166
    C   C53  0.698900  0.320600  0.706000  0.335987
    C   C54  0.673920  0.370780  0.782780  -0.350913
    C   C55  0.762530  0.356770  0.807970  -0.111998
    C   C56  0.876700  0.293800  0.754400  0.095370
    C   C57  0.814900  0.825700  0.380900  0.992745
    C   C58  0.036990  0.586610  0.109610  0.826456
    C   C59  0.822850  0.755950  0.322550  -0.362904
    C   C60  0.722800  0.742000  0.347200  -0.139099
    C   C61  0.725500  0.679400  0.294000  0.335003
    C   C62  0.827480  0.629220  0.217220  -0.348608
    C   C63  0.927270  0.643230  0.192030  -0.117488
    C   C64  0.924900  0.706200  0.245600  0.096900
    O   O1   0.356110  0.111250  0.428930  -0.895882
    O   O2   0.214560  0.176310  0.381970  -0.759519
    O   O3   0.304540  0.386860  0.075860  -0.755155
    O   O4   0.381580  0.481600  0.075840  -0.729670
    O   O5   0.555000  0.329300  0.320100  -0.553771
    O   O6   0.896290  0.888750  0.571070  -0.896006
    O   O7   0.772840  0.823690  0.618030  -0.757186
    O   O8   0.767260  0.613140  0.924140  -0.755787
    O   O9   0.939020  0.518400  0.924160  -0.729259
    O   O10  0.204400  0.670700  0.679900  -0.552498
    O   O11  0.214960  0.428930  0.888750  -0.897212
    O   O12  0.403470  0.381970  0.823690  -0.757677
    O   O13  0.619600  0.075860  0.613140  -0.755339
    O   O14  0.542580  0.075840  0.518400  -0.729851
    O   O15  0.124900  0.320100  0.670700  -0.551078
    O   O16  0.532640  0.571070  0.111250  -0.896401
    O   O17  0.609130  0.618030  0.176310  -0.757214
    O   O18  0.308600  0.924140  0.386860  -0.753747
    O   O19  0.136820  0.924160  0.481600  -0.726565
    O   O20  0.115700  0.679900  0.329300  -0.551651
    O   O21  0.396290  0.571070  0.888750  -0.895995
    O   O22  0.272840  0.618030  0.823690  -0.756960
    O   O23  0.267260  0.924140  0.613140  -0.755729
    O   O24  0.439020  0.924160  0.518400  -0.729236
    O   O25  0.704400  0.679900  0.670700  -0.552468
    O   O26  0.856110  0.428930  0.111250  -0.895924
    O   O27  0.714560  0.381970  0.176310  -0.759711
    O   O28  0.804540  0.075860  0.386860  -0.755169
    O   O29  0.881580  0.075840  0.481600  -0.729665
    O   O30  0.055000  0.320100  0.329300  -0.553675
    O   O31  0.032640  0.111250  0.571070  -0.896345
    O   O32  0.109130  0.176310  0.618030  -0.757340
    O   O33  0.808600  0.386860  0.924140  -0.753822
    O   O34  0.636820  0.481600  0.924160  -0.726486
    O   O35  0.615700  0.329300  0.679900  -0.551855
    O   O36  0.714960  0.888750  0.428930  -0.897264
    O   O37  0.903470  0.823690  0.381970  -0.757581
    O   O38  0.119600  0.613140  0.075860  -0.755290
    O   O39  0.042580  0.518400  0.075840  -0.729927
    O   O40  0.624900  0.670700  0.320100  -0.551009
