# Generated by REPEAT Assigner based on pymatgen
data_DB12-FIQZAH_clean
_audit_creation_date              2022-05-24
_audit_creation_method            REPEAT_Assigner
_cell_length_a                    11.340700
_cell_length_b                    9.785600
_cell_length_c                    14.433400
_cell_angle_alpha                 90.000000
_cell_angle_beta                  91.449000
_cell_angle_gamma                 90.000000
_cell_volume                      1601.242366
_symmetry_space_group_name_H-M    P1
_symmetry_Int_Tables_number       1
loop_
    _symmetry_equiv_pos_site_id
    _symmetry_equiv_pos_as_xyz
    1  x,y,z
loop_
    _atom_site_type_symbol
    _atom_site_label
    _atom_site_fract_x
    _atom_site_fract_y
    _atom_site_fract_z
    _atom_type_partial_charge
    Zn  Zn1   0.243210  0.081350  0.368800  1.211721
    Zn  Zn2   0.240080  0.394820  0.313940  1.224819
    O   O1    0.315400  0.973500  0.477090  -0.722579
    C   C1    0.256800  0.894500  0.529600  0.745232
    H   H1    0.299000  0.846000  0.570000  -0.019025
    O   O2    0.149700  0.887300  0.533430  -0.643965
    O   O3    0.101700  0.157300  0.440560  -0.646228
    C   C2    0.069400  0.280700  0.448900  0.627438
    H   H2    -0.000000  0.289000  0.487000  0.021589
    O   O4    0.111200  0.380600  0.408870  -0.610917
    O   O5    0.189900  0.202700  0.254500  -0.696948
    C   C3    0.169000  0.175500  0.169700  0.710638
    H   H3    0.136000  0.250000  0.129000  -0.018449
    O   O6    0.185200  0.064800  0.130540  -0.644705
    O   O7    0.346100  0.259300  0.391180  -0.626377
    C   C4    0.424100  0.289600  0.452100  0.644810
    H   H4    0.431000  0.385000  0.455000  -0.012129
    O   O8    0.481600  0.210000  0.500730  -0.600924
    O   O9    0.149100  0.918900  0.304780  -0.651976
    C   C5    0.045100  0.874100  0.311300  0.664568
    H   H5    0.024000  0.809000  0.267000  -0.008209
    O   O10   0.976300  0.899100  0.374300  -0.656252
    O   O11   0.370000  0.997300  0.280650  -0.679262
    C   C6    0.480300  0.987300  0.287800  0.736288
    H   H6    0.517000  0.966000  0.231000  -0.039300
    O   O12   0.540600  0.999700  0.359560  -0.654339
    Zn  Zn3   0.256790  0.581350  0.131200  1.211718
    Zn  Zn4   0.259920  0.894820  0.186060  1.224812
    O   O13   0.184600  0.473500  0.022910  -0.722584
    C   C7    0.243200  0.394500  0.970400  0.745200
    H   H7    0.201000  0.346000  0.930000  -0.019017
    O   O14   0.350300  0.387300  0.966570  -0.643928
    O   O15   0.398300  0.657300  0.059440  -0.646212
    C   C8    0.430600  0.780700  0.051100  0.627442
    H   H8    0.500000  0.789000  0.013000  0.021571
    O   O16   0.388800  0.880600  0.091130  -0.610921
    O   O17   0.310100  0.702700  0.245500  -0.696947
    C   C9    0.331000  0.675500  0.330300  0.710643
    H   H9    0.364000  0.750000  0.371000  -0.018450
    O   O18   0.314800  0.564800  0.369460  -0.644716
    O   O19   0.153900  0.759300  0.108820  -0.626364
    C   C10   0.075900  0.789600  0.047900  0.644759
    H   H10   0.069000  0.885000  0.045000  -0.012111
    O   O20   0.018400  0.710000  0.999270  -0.600895
    O   O21   0.350900  0.418900  0.195220  -0.651969
    C   C11   0.454900  0.374100  0.188700  0.664569
    H   H11   0.476000  0.309000  0.233000  -0.008209
    O   O22   0.523700  0.399100  0.125700  -0.656258
    O   O23   0.130000  0.497300  0.219350  -0.679259
    C   C12   0.019700  0.487300  0.212200  0.736265
    H   H12   0.983000  0.466000  0.269000  -0.039295
    O   O24   0.959400  0.499700  0.140440  -0.654322
    Zn  Zn5   0.756790  0.918650  0.631200  1.211718
    Zn  Zn6   0.759920  0.605180  0.686060  1.224844
    O   O25   0.684600  0.026500  0.522910  -0.722588
    C   C13   0.743200  0.105500  0.470400  0.745243
    H   H13   0.701000  0.154000  0.430000  -0.019026
    O   O26   0.850300  0.112700  0.466570  -0.643960
    O   O27   0.898300  0.842700  0.559440  -0.646260
    C   C14   0.930600  0.719300  0.551100  0.627591
    H   H14   -0.000000  0.711000  0.513000  0.021545
    O   O28   0.888800  0.619400  0.591130  -0.611047
    O   O29   0.810100  0.797300  0.745500  -0.696951
    C   C15   0.831000  0.824500  0.830300  0.710644
    H   H15   0.864000  0.750000  0.871000  -0.018449
    O   O30   0.814800  0.935200  0.869460  -0.644712
    O   O31   0.653900  0.740700  0.608820  -0.626368
    C   C16   0.575900  0.710400  0.547900  0.644798
    H   H16   0.569000  0.615000  0.545000  -0.012125
    O   O32   0.518400  0.790000  0.499270  -0.600915
    O   O33   0.850900  0.081100  0.695220  -0.651958
    C   C17   0.954900  0.125900  0.688700  0.664552
    H   H17   0.976000  0.191000  0.733000  -0.008205
    O   O34   0.023700  0.100900  0.625700  -0.656250
    O   O35   0.630000  0.002700  0.719350  -0.679254
    C   C18   0.519700  0.012700  0.712200  0.736285
    H   H18   0.483000  0.034000  0.769000  -0.039301
    O   O36   0.459400  0.000300  0.640440  -0.654336
    Zn  Zn7   0.743210  0.418650  0.868800  1.211724
    Zn  Zn8   0.740080  0.105180  0.813940  1.224819
    O   O37   0.815400  0.526500  0.977090  -0.722555
    C   C19   0.756800  0.605500  0.029600  0.745187
    H   H19   0.799000  0.654000  0.070000  -0.019013
    O   O38   0.649700  0.612700  0.033430  -0.643937
    O   O39   0.601700  0.342700  0.940560  -0.646219
    C   C20   0.569400  0.219300  0.948900  0.627455
    H   H20   0.500000  0.211000  0.987000  0.021563
    O   O40   0.611200  0.119400  0.908870  -0.610924
    O   O41   0.689900  0.297300  0.754500  -0.696945
    C   C21   0.669000  0.324500  0.669700  0.710619
    H   H21   0.636000  0.250000  0.629000  -0.018453
    O   O42   0.685200  0.435200  0.630540  -0.644689
    O   O43   0.846100  0.240700  0.891180  -0.626395
    C   C22   0.924100  0.210400  0.952100  0.644820
    H   H22   0.931000  0.115000  0.955000  -0.012135
    O   O44   0.981600  0.290000  0.000730  -0.600916
    O   O45   0.649100  0.581100  0.804780  -0.652004
    C   C23   0.545100  0.625900  0.811300  0.664586
    H   H23   0.524000  0.691000  0.767000  -0.008224
    O   O46   0.476300  0.600900  0.874300  -0.656242
    O   O47   0.870000  0.502700  0.780650  -0.679228
    C   C24   0.980300  0.512700  0.787800  0.736250
    H   H24   0.017000  0.534000  0.731000  -0.039275
    O   O48   0.040600  0.500300  0.859560  -0.654328
    Zn  Zn9   0.500000  0.000000  0.500000  1.341211
    Zn  Zn10  0.000000  0.500000  0.000000  1.341185
    Zn  Zn11  -0.000000  0.000000  0.500000  1.347765
    Zn  Zn12  0.500000  0.500000  0.000000  1.347745
