# Generated by REPEAT Assigner based on pymatgen
data_DB13-dia-Syn034966
_audit_creation_date              2022-05-24
_audit_creation_method            REPEAT_Assigner
_cell_length_a                    30.455200
_cell_length_b                    30.455200
_cell_length_c                    31.665600
_cell_angle_alpha                 90.000000
_cell_angle_beta                  90.000000
_cell_angle_gamma                 90.000000
_cell_volume                      29370.452202
_symmetry_space_group_name_H-M    P1
_symmetry_Int_Tables_number       1
loop_
    _symmetry_equiv_pos_site_id
    _symmetry_equiv_pos_as_xyz
    1  x,y,z
loop_
    _atom_site_type_symbol
    _atom_site_label
    _atom_site_fract_x
    _atom_site_fract_y
    _atom_site_fract_z
    _atom_type_partial_charge
    C  C1    0.807708  0.442377  0.305421  0.730251
    C  C2    0.807538  0.307707  0.444580  0.678269
    C  C3    0.942378  0.442547  0.444581  0.672045
    C  C4    0.192463  0.192463  0.055419  0.655695
    C  C5    0.807708  0.942208  0.805421  0.735113
    C  C6    0.942208  0.807708  0.805421  0.678827
    C  C7    0.942378  0.942378  0.944580  0.677037
    C  C8    0.807537  0.807537  0.944581  0.664803
    C  C9    0.442547  0.442547  0.944578  0.688135
    C  C10   0.308047  0.308047  0.944578  0.727857
    C  C11   0.307877  0.442717  0.805419  0.653732
    C  C12   0.442718  0.307877  0.805418  0.714064
    C  C13   0.307708  0.807877  0.444579  0.736156
    C  C14   0.442208  0.942377  0.444579  0.684434
    C  C15   0.442378  0.807707  0.305420  0.670203
    C  C16   0.307537  0.942547  0.305419  0.668447
    C  C17   0.164132  0.980259  0.971669  0.685265
    C  C18   0.117241  0.985740  0.970338  0.116984
    C  C19   0.181537  0.965983  0.928484  -0.385094
    C  C20   0.141047  0.967927  0.898700  0.497355
    C  C21   0.104483  0.960926  0.929613  -0.061006
    C  C22   0.057792  0.192292  0.194579  0.691265
    C  C23   0.029730  0.026107  0.024609  -0.265852
    C  C24   0.986877  0.042526  0.011189  -0.084892
    C  C25   0.960171  0.013629  0.986747  -0.144523
    C  C26   0.973627  0.972776  0.973215  -0.060390
    C  C27   0.012647  0.958699  0.989068  -0.190511
    C  C28   0.044376  0.985708  0.007935  0.194895
    C  C29   0.091940  0.970070  0.009292  0.249179
    C  C30   0.585783  0.269825  0.471669  0.676335
    C  C31   0.632675  0.264344  0.470338  0.129653
    C  C32   0.568379  0.284101  0.428484  -0.356794
    C  C33   0.608868  0.282157  0.398700  0.509359
    C  C34   0.645432  0.289159  0.429613  -0.080185
    C  C35   0.720185  0.223977  0.524609  -0.284856
    C  C36   0.763038  0.207558  0.511189  -0.067661
    C  C37   0.789744  0.236455  0.486747  -0.148477
    C  C38   0.776289  0.277308  0.473215  -0.066815
    C  C39   0.737268  0.291385  0.489068  -0.210292
    C  C40   0.705539  0.264376  0.507935  0.221998
    C  C41   0.657976  0.280014  0.509292  0.211999
    C  C42   0.086123  0.480599  0.778330  0.681007
    C  C43   0.133014  0.486080  0.779660  0.134520
    C  C44   0.068718  0.466323  0.821515  -0.367951
    C  C45   0.109208  0.468267  0.851299  0.523348
    C  C46   0.145772  0.461265  0.820386  -0.079433
    C  C47   0.692123  0.057792  0.694579  0.717999
    C  C48   0.220525  0.526447  0.725389  -0.222739
    C  C49   0.263378  0.542866  0.738809  -0.109569
    C  C50   0.290083  0.513969  0.763252  -0.140715
    C  C51   0.276628  0.473116  0.776784  -0.071094
    C  C52   0.237608  0.459039  0.760931  -0.166357
    C  C53   0.205879  0.486048  0.742064  0.164827
    C  C54   0.158315  0.470410  0.740707  0.228617
    C  C55   0.664132  0.769825  0.278331  0.688936
    C  C56   0.617241  0.764344  0.279662  0.109839
    C  C57   0.681537  0.784101  0.321516  -0.387347
    C  C58   0.641047  0.782157  0.351300  0.508689
    C  C59   0.604483  0.789159  0.320387  -0.061936
    C  C60   0.557623  0.192292  0.694579  0.721544
    C  C61   0.529730  0.723977  0.225391  -0.294471
    C  C62   0.486877  0.707558  0.238811  -0.071062
    C  C63   0.460171  0.736455  0.263253  -0.142214
    C  C64   0.473627  0.777308  0.276785  -0.058624
    C  C65   0.512647  0.791385  0.260932  -0.196208
    C  C66   0.544376  0.764376  0.242065  0.210576
    C  C67   0.591940  0.780014  0.240708  0.256381
    C  C68   0.414218  0.730514  0.528330  0.667552
    C  C69   0.367326  0.735994  0.529661  0.193436
    C  C70   0.431622  0.716238  0.571516  -0.400307
    C  C71   0.391132  0.718181  0.601300  0.540823
    C  C72   0.354569  0.711180  0.570386  -0.121972
    C  C73   0.692293  0.192462  0.555420  0.710458
    C  C74   0.279815  0.776362  0.475390  -0.338708
    C  C75   0.236962  0.792781  0.488810  -0.036818
    C  C76   0.210257  0.763884  0.513252  -0.143692
    C  C77   0.223712  0.723031  0.526785  -0.108343
    C  C78   0.262733  0.708953  0.510931  -0.174445
    C  C79   0.294462  0.735963  0.492065  0.239852
    C  C80   0.342025  0.720325  0.490707  0.173811
    C  C81   0.914218  0.519740  0.221670  0.662604
    C  C82   0.867326  0.514259  0.220339  0.191878
    C  C83   0.931622  0.534016  0.178484  -0.388617
    C  C84   0.891132  0.532072  0.148700  0.540741
    C  C85   0.854569  0.539074  0.179614  -0.123216
    C  C86   0.779815  0.473892  0.274610  -0.336492
    C  C87   0.557453  0.057622  0.555419  0.703744
    C  C88   0.736962  0.457473  0.261190  -0.036622
    C  C89   0.710257  0.486370  0.236748  -0.173854
    C  C90   0.723712  0.527223  0.223215  -0.031633
    C  C91   0.762733  0.541300  0.239069  -0.226679
    C  C92   0.794462  0.514291  0.257935  0.251359
    C  C93   0.842025  0.529929  0.259293  0.177353
    C  C94   0.335868  0.230174  0.721669  0.674436
    C  C95   0.382760  0.235655  0.720338  0.128881
    C  C96   0.318464  0.215898  0.678483  -0.376202
    C  C97   0.358953  0.217842  0.648699  0.529747
    C  C98   0.395517  0.210840  0.679613  -0.083719
    C  C99   0.470271  0.276022  0.774609  -0.257691
    C  C100  0.513124  0.292441  0.761189  -0.094289
    C  C101  0.539829  0.263544  0.736746  -0.104477
    C  C102  0.526374  0.222691  0.723214  -0.146202
    C  C103  0.487353  0.208614  0.739068  -0.146107
    C  C104  0.455624  0.235623  0.757934  0.186504
    C  C105  0.408061  0.219985  0.759292  0.246585
    C  C106  0.164472  0.480769  0.471669  0.674061
    C  C107  0.117581  0.486249  0.470338  0.156897
    C  C108  0.181877  0.466493  0.428483  -0.394279
    C  C109  0.141387  0.468436  0.398699  0.549773
    C  C110  0.104823  0.461435  0.429613  -0.129796
    C  C111  0.030070  0.526616  0.524609  -0.358181
    C  C112  0.987217  0.543036  0.511189  -0.037277
    C  C113  0.960512  0.514139  0.486746  -0.142213
    C  C114  0.973967  0.473286  0.473214  -0.072717
    C  C115  0.012987  0.459208  0.489068  -0.194349
    C  C116  0.044717  0.486218  0.507934  0.240018
    C  C117  0.092280  0.470580  0.509292  0.271189
    C  C118  0.585782  0.769655  0.971670  0.675374
    C  C119  0.632674  0.764175  0.970339  0.159392
    C  C120  0.568378  0.783931  0.928484  -0.386055
    C  C121  0.608868  0.781988  0.898700  0.553706
    C  C122  0.645431  0.788989  0.929614  -0.118449
    C  C123  0.720185  0.723808  0.024610  -0.293473
    C  C124  0.763038  0.707388  0.011190  -0.074422
    C  C125  0.789743  0.736285  0.986748  -0.138221
    C  C126  0.776288  0.777138  0.973215  -0.091256
    C  C127  0.737267  0.791216  0.989069  -0.154176
    C  C128  0.705538  0.764206  0.007935  0.187998
    C  C129  0.657975  0.779844  0.009293  0.260066
    C  C130  0.085782  0.980429  0.278330  0.681525
    C  C131  0.132674  0.985910  0.279661  0.152494
    C  C132  0.068378  0.966153  0.321516  -0.397578
    C  C133  0.108868  0.968097  0.351300  0.552762
    C  C134  0.145431  0.961095  0.320386  -0.113227
    C  C135  0.220185  0.026277  0.225390  -0.305286
    C  C136  0.263038  0.042696  0.238810  -0.068413
    C  C137  0.289743  0.013799  0.263252  -0.135191
    C  C138  0.276288  0.972946  0.276785  -0.101406
    C  C139  0.237267  0.958869  0.260931  -0.143146
    C  C140  0.205538  0.985878  0.242065  0.188745
    C  C141  0.157975  0.970240  0.240707  0.261263
    C  C142  0.414218  0.230345  0.028330  0.674428
    C  C143  0.367326  0.235825  0.029661  0.169538
    C  C144  0.431622  0.216069  0.071516  -0.401471
    C  C145  0.391132  0.218012  0.101300  0.561056
    C  C146  0.354569  0.211011  0.070386  -0.115718
    C  C147  0.279815  0.276192  0.975390  -0.294843
    C  C148  0.236962  0.292612  0.988810  -0.074483
    C  C149  0.210257  0.263715  0.013252  -0.146954
    C  C150  0.223712  0.222862  0.026785  -0.075314
    C  C151  0.262733  0.208784  0.010931  -0.153791
    C  C152  0.294462  0.235794  0.992065  0.190090
    C  C153  0.192292  0.057792  0.194579  0.734337
    C  C154  0.192463  0.692632  0.555419  0.708231
    C  C155  0.342025  0.220156  0.990707  0.233336
    C  C156  0.913878  0.019910  0.721669  0.664895
    C  C157  0.866986  0.014430  0.720338  0.179450
    C  C158  0.931282  0.034186  0.678483  -0.391161
    C  C159  0.890793  0.032243  0.648699  0.551943
    C  C160  0.854229  0.039244  0.679613  -0.120708
    C  C161  0.779476  0.974063  0.774609  -0.348339
    C  C162  0.736623  0.957643  0.761189  -0.035608
    C  C163  0.709917  0.986540  0.736746  -0.134787
    C  C164  0.723373  0.027393  0.723214  -0.126720
    C  C165  0.762393  0.041471  0.739068  -0.166124
    C  C166  0.794122  0.014461  0.757934  0.241068
    C  C167  0.841685  0.030099  0.759292  0.199149
    C  C168  0.057962  0.558132  0.555419  0.749269
    C  C169  0.663963  0.980259  0.471669  0.668762
    C  C170  0.617071  0.985739  0.470338  0.145180
    C  C171  0.681367  0.965983  0.428483  -0.377932
    C  C172  0.640877  0.967927  0.398699  0.515447
    C  C173  0.604314  0.960925  0.429613  -0.063176
    C  C174  0.529560  0.026107  0.524609  -0.260816
    C  C175  0.486707  0.042526  0.511189  -0.075700
    C  C176  0.460002  0.013629  0.486746  -0.156043
    C  C177  0.473457  0.972776  0.473214  -0.087182
    C  C178  0.512478  0.958698  0.489068  -0.169516
    C  C179  0.544207  0.985708  0.507934  0.191818
    C  C180  0.591770  0.970070  0.509292  0.193409
    C  C181  0.192633  0.557962  0.694579  0.698271
    C  C182  0.164302  0.770165  0.778330  0.669339
    C  C183  0.117410  0.764685  0.779661  0.141786
    C  C184  0.181706  0.784441  0.821516  -0.375380
    C  C185  0.141217  0.782498  0.851300  0.519471
    C  C186  0.104653  0.789499  0.820386  -0.066771
    C  C187  0.029900  0.724317  0.725390  -0.288638
    C  C188  0.987047  0.707898  0.738810  -0.060487
    C  C189  0.960341  0.736795  0.763252  -0.155455
    C  C190  0.973797  0.777648  0.776785  -0.087187
    C  C191  0.012817  0.791726  0.760931  -0.169274
    C  C192  0.044546  0.764716  0.742065  0.202607
    C  C193  0.092109  0.780354  0.740707  0.206355
    C  C194  0.057792  0.692802  0.694579  0.710655
    C  C195  0.836037  0.230174  0.221669  0.656207
    C  C196  0.882929  0.235655  0.220338  0.199459
    C  C197  0.818633  0.215898  0.178483  -0.399894
    C  C198  0.859123  0.217842  0.148699  0.564082
    C  C199  0.895686  0.210840  0.179613  -0.127664
    C  C200  0.970440  0.276022  0.274609  -0.320784
    C  C201  0.013293  0.292441  0.261189  -0.042256
    C  C202  0.039998  0.263544  0.236746  -0.149141
    C  C203  0.026543  0.222691  0.223214  -0.108458
    C  C204  0.987522  0.208614  0.239068  -0.165433
    C  C205  0.955793  0.235623  0.257934  0.220655
    C  C206  0.908230  0.219985  0.259292  0.191725
    C  C207  0.664302  0.480429  0.971670  0.654759
    C  C208  0.617410  0.485910  0.970339  0.194236
    C  C209  0.681706  0.466153  0.928484  -0.386264
    C  C210  0.641217  0.468097  0.898700  0.557727
    C  C211  0.604653  0.461095  0.929614  -0.133160
    C  C212  0.529900  0.526277  0.024610  -0.356184
    C  C213  0.487047  0.542696  0.011190  -0.026570
    C  C214  0.460341  0.513799  0.986748  -0.155036
    C  C215  0.473797  0.472946  0.973215  -0.102829
    C  C216  0.512817  0.458869  0.989069  -0.171544
    C  C217  0.544546  0.485878  0.007935  0.242100
    C  C218  0.592109  0.470240  0.009293  0.202071
    C  C219  0.557792  0.557792  0.055421  0.735662
    C  C220  0.692292  0.692292  0.055421  0.724945
    C  C221  0.057622  0.057622  0.055420  0.718012
    C  C222  0.557622  0.692462  0.194580  0.728972
    C  C223  0.692463  0.557622  0.194581  0.661533
    C  C224  0.942208  0.307877  0.305421  0.720182
    H  H1    0.914625  0.335458  0.426527  0.399019
    H  H2    0.835289  0.414794  0.426527  0.398199
    H  H3    0.829155  0.329324  0.323832  0.329501
    H  H4    0.920761  0.420930  0.323832  0.329284
    H  H5    0.835291  0.914626  0.926527  0.400393
    H  H6    0.914626  0.835291  0.926527  0.386679
    H  H7    0.920761  0.920761  0.823832  0.323401
    H  H8    0.829155  0.829155  0.823832  0.313810
    H  H9    0.414964  0.414966  0.823472  0.394156
    H  H10   0.335629  0.335630  0.823472  0.411462
    H  H11   0.329494  0.421100  0.926166  0.312603
    H  H12   0.421100  0.329494  0.926167  0.340314
    H  H13   0.335291  0.835458  0.323473  0.398453
    H  H14   0.414626  0.914794  0.323473  0.387713
    H  H15   0.420761  0.829324  0.426168  0.321026
    H  H16   0.329155  0.920930  0.426168  0.317211
    H  H17   0.112168  0.022018  0.964041  -0.043595
    H  H18   0.206985  0.990289  0.917778  0.103428
    H  H19   0.199029  0.935675  0.931128  0.100585
    H  H20   0.085374  0.164709  0.073473  0.392791
    H  H21   0.100616  0.924962  0.933768  -0.047355
    H  H22   0.072768  0.970592  0.916472  0.023303
    H  H23   0.164709  0.085374  0.073473  0.413868
    H  H24   0.974108  0.074163  0.023032  0.102028
    H  H25   0.925258  0.022548  0.979921  0.086068
    H  H26   0.023186  0.925250  0.982959  0.137200
    H  H27   0.115302  0.000573  0.848663  0.314093
    H  H28   0.167744  0.008098  0.854245  0.324669
    H  H29   0.144612  0.938123  0.877717  -0.084779
    H  H30   0.124001  0.918363  0.033030  0.299461
    H  H31   0.073676  0.913487  0.035578  0.260770
    H  H32   0.079239  0.079239  0.176168  0.340394
    H  H33   0.104294  0.981694  0.038462  -0.020017
    H  H34   0.637747  0.228066  0.464041  -0.036509
    H  H35   0.542930  0.259796  0.417778  0.090874
    H  H36   0.550886  0.314410  0.431128  0.094480
    H  H37   0.649299  0.325122  0.433768  -0.045105
    H  H38   0.170845  0.170845  0.176168  0.315547
    H  H39   0.677147  0.279493  0.416472  0.028771
    H  H40   0.775808  0.175922  0.523032  0.103209
    H  H41   0.824658  0.227536  0.479921  0.083535
    H  H42   0.726729  0.324835  0.482959  0.145650
    H  H43   0.634613  0.249511  0.348663  0.320712
    H  H44   0.582172  0.241987  0.354245  0.326227
    H  H45   0.605304  0.311962  0.377717  -0.096782
    H  H46   0.625915  0.331721  0.533030  0.297688
    H  H47   0.676239  0.336597  0.535578  0.251566
    H  H48   0.645621  0.268391  0.538462  0.001861
    H  H49   0.138087  0.522358  0.785958  -0.042679
    H  H50   0.043270  0.490628  0.832221  0.094023
    H  H51   0.051226  0.436015  0.818871  0.096453
    H  H52   0.149639  0.425302  0.816231  -0.044267
    H  H53   0.177487  0.470931  0.833527  0.017219
    H  H54   0.276147  0.574502  0.726966  0.112699
    H  H55   0.324997  0.522888  0.770078  0.087212
    H  H56   0.227069  0.425589  0.767039  0.141698
    H  H57   0.134953  0.500913  0.901335  0.310294
    H  H58   0.082511  0.508437  0.895754  0.324696
    H  H59   0.105643  0.438462  0.872282  -0.098877
    H  H60   0.126254  0.418703  0.716969  0.295651
    H  H61   0.176579  0.413827  0.714421  0.261722
    H  H62   0.145961  0.482033  0.711537  -0.012163
    H  H63   0.612168  0.728066  0.285959  -0.042204
    H  H64   0.706985  0.759796  0.332222  0.103336
    H  H65   0.699029  0.814410  0.318872  0.100358
    H  H66   0.600616  0.825122  0.316232  -0.047164
    H  H67   0.572768  0.779493  0.333528  0.021883
    H  H68   0.474108  0.675922  0.226968  0.094816
    H  H69   0.425258  0.727536  0.270079  0.083784
    H  H70   0.523186  0.824835  0.267041  0.139070
    H  H71   0.615302  0.749511  0.401337  0.315723
    H  H72   0.667744  0.741987  0.395755  0.320981
    H  H73   0.644612  0.811962  0.372283  -0.087214
    H  H74   0.624001  0.831721  0.216970  0.301866
    H  H75   0.573676  0.836597  0.214422  0.259159
    H  H76   0.604294  0.768391  0.211538  -0.025278
    H  H77   0.362253  0.772273  0.535959  -0.048798
    H  H78   0.457070  0.740543  0.582221  0.101469
    H  H79   0.449114  0.685929  0.568871  0.104706
    H  H80   0.350701  0.675216  0.566232  -0.034407
    H  H81   0.322853  0.720846  0.583527  0.026903
    H  H82   0.224193  0.824417  0.476967  0.083552
    H  H83   0.175343  0.772802  0.520078  0.081438
    H  H84   0.273271  0.675504  0.517040  0.138313
    H  H85   0.365387  0.750828  0.651336  0.319399
    H  H86   0.417829  0.758352  0.645755  0.321419
    H  H87   0.394697  0.688377  0.622282  -0.097720
    H  H88   0.374086  0.668618  0.466969  0.296479
    H  H89   0.323762  0.663742  0.464421  0.258695
    H  H90   0.354379  0.731948  0.461538  -0.011017
    H  H91   0.862253  0.477981  0.214041  -0.044610
    H  H92   0.957070  0.509711  0.167779  0.096880
    H  H93   0.949114  0.564324  0.181129  0.101647
    H  H94   0.850701  0.575037  0.183768  -0.033407
    H  H95   0.822853  0.529407  0.166473  0.030580
    H  H96   0.724193  0.425837  0.273033  0.091307
    H  H97   0.675343  0.477451  0.229922  0.090406
    H  H98   0.773271  0.574750  0.232960  0.155450
    H  H99   0.865387  0.499426  0.098664  0.319184
    H  H100  0.917829  0.491901  0.104245  0.325036
    H  H101  0.894697  0.561876  0.127718  -0.100319
    H  H102  0.874086  0.581636  0.283031  0.299862
    H  H103  0.823762  0.586512  0.285579  0.259252
    H  H104  0.854379  0.518306  0.288462  -0.012932
    H  H105  0.387832  0.271933  0.714040  -0.044235
    H  H106  0.293016  0.240203  0.667778  0.100212
    H  H107  0.300972  0.185590  0.681127  0.098859
    H  H108  0.399384  0.174877  0.683767  -0.048924
    H  H109  0.427233  0.220507  0.666472  0.024117
    H  H110  0.525893  0.324078  0.773032  0.102464
    H  H111  0.574743  0.272463  0.729921  0.073918
    H  H112  0.476815  0.175165  0.732959  0.125863
    H  H113  0.384698  0.250488  0.598663  0.318064
    H  H114  0.332257  0.258013  0.604244  0.322608
    H  H115  0.355389  0.188038  0.627716  -0.100412
    H  H116  0.376000  0.168278  0.783030  0.298012
    H  H117  0.426324  0.163402  0.785577  0.255941
    H  H118  0.395706  0.231609  0.788461  -0.023492
    H  H119  0.112508  0.522527  0.464040  -0.047706
    H  H120  0.207325  0.490798  0.417778  0.102837
    H  H121  0.199369  0.436184  0.431127  0.100622
    H  H122  0.100956  0.425471  0.433767  -0.036582
    H  H123  0.073108  0.471101  0.416472  0.032849
    H  H124  0.974448  0.574672  0.523032  0.083044
    H  H125  0.925598  0.523057  0.479921  0.081171
    H  H126  0.023526  0.425759  0.482959  0.136017
    H  H127  0.115642  0.501083  0.348663  0.316406
    H  H128  0.168084  0.508607  0.354244  0.318715
    H  H129  0.144952  0.438632  0.377716  -0.100866
    H  H130  0.124341  0.418872  0.533030  0.301892
    H  H131  0.074017  0.413997  0.535577  0.258423
    H  H132  0.104634  0.482203  0.538461  -0.053984
    H  H133  0.637747  0.727897  0.964041  -0.043559
    H  H134  0.542930  0.759626  0.917779  0.097858
    H  H135  0.550886  0.814240  0.931129  0.098855
    H  H136  0.649299  0.824953  0.933768  -0.040227
    H  H137  0.677147  0.779323  0.916473  0.024635
    H  H138  0.664542  0.085375  0.573473  0.400835
    H  H139  0.775807  0.675752  0.023033  0.100385
    H  H140  0.824657  0.727367  0.979922  0.084473
    H  H141  0.726729  0.824665  0.982960  0.129018
    H  H142  0.634613  0.749341  0.848664  0.311884
    H  H143  0.582171  0.741817  0.854245  0.325036
    H  H144  0.605303  0.811792  0.877718  -0.104245
    H  H145  0.585206  0.164711  0.573473  0.398410
    H  H146  0.625914  0.831552  0.033031  0.297224
    H  H147  0.676238  0.836428  0.035579  0.260219
    H  H148  0.645621  0.768221  0.038462  -0.042025
    H  H149  0.137747  0.022188  0.285959  -0.046674
    H  H150  0.042930  0.990458  0.332221  0.102368
    H  H151  0.050886  0.935845  0.318871  0.101990
    H  H152  0.670676  0.170845  0.676168  0.326992
    H  H153  0.149299  0.925132  0.316232  -0.039574
    H  H154  0.177147  0.970762  0.333527  0.022181
    H  H155  0.579070  0.079239  0.676168  0.326394
    H  H156  0.275807  0.074333  0.226967  0.092750
    H  H157  0.324657  0.022718  0.270078  0.083258
    H  H158  0.226729  0.925420  0.267040  0.125079
    H  H159  0.134613  0.000743  0.401336  0.310712
    H  H160  0.082171  0.008268  0.395755  0.322743
    H  H161  0.105303  0.938293  0.372282  -0.102026
    H  H162  0.125914  0.918533  0.216969  0.297070
    H  H163  0.176238  0.913657  0.214421  0.260094
    H  H164  0.145621  0.981864  0.211538  -0.041638
    H  H165  0.362253  0.272103  0.035959  -0.050745
    H  H166  0.457070  0.240374  0.082221  0.102531
    H  H167  0.449114  0.185760  0.068871  0.103359
    H  H168  0.350701  0.175047  0.066232  -0.037361
    H  H169  0.322853  0.220677  0.083527  0.019566
    H  H170  0.224193  0.324248  0.976967  0.094646
    H  H171  0.175343  0.272633  0.020078  0.088253
    H  H172  0.273271  0.175335  0.017040  0.135772
    H  H173  0.365387  0.250659  0.151336  0.308871
    H  H174  0.417829  0.258183  0.145755  0.321915
    H  H175  0.394697  0.188208  0.122282  -0.104211
    H  H176  0.374086  0.168448  0.966969  0.297443
    H  H177  0.323762  0.163572  0.964421  0.263841
    H  H178  0.354379  0.231779  0.961538  -0.036042
    H  H179  0.861914  0.978151  0.714040  -0.046169
    H  H180  0.956731  0.009881  0.667778  0.099610
    H  H181  0.948775  0.064495  0.681127  0.101577
    H  H182  0.850362  0.075208  0.683767  -0.039643
    H  H183  0.822514  0.029578  0.666472  0.029358
    H  H184  0.723853  0.926007  0.773032  0.084056
    H  H185  0.675004  0.977622  0.729921  0.079253
    H  H186  0.772932  0.074920  0.732959  0.130504
    H  H187  0.865048  0.999596  0.598663  0.320992
    H  H188  0.917489  0.992072  0.604244  0.322372
    H  H189  0.894357  0.062047  0.627716  -0.102974
    H  H190  0.873747  0.081807  0.783030  0.298210
    H  H191  0.823422  0.086682  0.785577  0.254576
    H  H192  0.854040  0.018476  0.788461  -0.019285
    H  H193  0.611998  0.022018  0.464040  -0.041112
    H  H194  0.706815  0.990288  0.417778  0.097979
    H  H195  0.698859  0.935674  0.431127  0.099187
    H  H196  0.600447  0.924961  0.433767  -0.048844
    H  H197  0.572598  0.970591  0.416472  0.013180
    H  H198  0.473938  0.074162  0.523032  0.104511
    H  H199  0.425088  0.022547  0.479921  0.087189
    H  H200  0.523016  0.925249  0.482959  0.139359
    H  H201  0.615132  0.000573  0.348663  0.310172
    H  H202  0.667574  0.008097  0.354244  0.327392
    H  H203  0.644442  0.938122  0.377716  -0.091506
    H  H204  0.623831  0.918363  0.533030  0.293252
    H  H205  0.573507  0.913487  0.535577  0.258353
    H  H206  0.604125  0.981693  0.538461  0.007310
    H  H207  0.112338  0.728406  0.785959  -0.039621
    H  H208  0.207155  0.760136  0.832221  0.096818
    H  H209  0.199199  0.814750  0.818871  0.097791
    H  H210  0.100786  0.825463  0.816232  -0.047148
    H  H211  0.072938  0.779833  0.833527  0.012070
    H  H212  0.974277  0.676262  0.726967  0.097538
    H  H213  0.925428  0.727877  0.770078  0.085672
    H  H214  0.023356  0.825175  0.767040  0.139168
    H  H215  0.115472  0.749851  0.901336  0.311853
    H  H216  0.167913  0.742327  0.895755  0.323747
    H  H217  0.144781  0.812302  0.872282  -0.091738
    H  H218  0.124171  0.832061  0.716969  0.296199
    H  H219  0.073846  0.836937  0.714421  0.257071
    H  H220  0.104464  0.768731  0.711538  -0.001346
    H  H221  0.888002  0.271933  0.214040  -0.046845
    H  H222  0.793185  0.240203  0.167778  0.101995
    H  H223  0.801141  0.185590  0.181127  0.103867
    H  H224  0.899553  0.174877  0.183767  -0.035805
    H  H225  0.927402  0.220507  0.166472  0.021217
    H  H226  0.026062  0.324078  0.273032  0.091026
    H  H227  0.074912  0.272463  0.229921  0.082511
    H  H228  0.976984  0.175165  0.232959  0.137407
    H  H229  0.884868  0.250488  0.098663  0.311876
    H  H230  0.832426  0.258013  0.104244  0.326322
    H  H231  0.855558  0.188038  0.127716  -0.106295
    H  H232  0.876169  0.168278  0.283030  0.296027
    H  H233  0.926493  0.163402  0.285577  0.258588
    H  H234  0.895875  0.231609  0.288461  -0.017444
    H  H235  0.612338  0.522188  0.964041  -0.046131
    H  H236  0.707155  0.490458  0.917779  0.097338
    H  H237  0.699199  0.435845  0.931129  0.100124
    H  H238  0.600786  0.425132  0.933768  -0.034924
    H  H239  0.572938  0.470762  0.916473  0.021910
    H  H240  0.474277  0.574333  0.023033  0.085654
    H  H241  0.425428  0.522718  0.979922  0.082405
    H  H242  0.523356  0.425420  0.982960  0.137522
    H  H243  0.615472  0.500743  0.848664  0.311743
    H  H244  0.667913  0.508268  0.854245  0.321316
    H  H245  0.644781  0.438293  0.877718  -0.103541
    H  H246  0.624171  0.418533  0.033031  0.297420
    H  H247  0.573846  0.413657  0.035579  0.257087
    H  H248  0.604464  0.481864  0.038462  -0.025892
    H  H249  0.164881  0.665049  0.676526  0.398195
    H  H250  0.085546  0.585713  0.676526  0.416106
    H  H251  0.171015  0.579579  0.573831  0.343563
    H  H252  0.079410  0.671185  0.573831  0.335212
    H  H253  0.585374  0.585375  0.176527  0.406090
    H  H254  0.664709  0.664711  0.176527  0.413136
    H  H255  0.579239  0.670845  0.073832  0.350455
    H  H256  0.670845  0.579239  0.073832  0.328606
    N  N1    0.138978  0.004936  0.872884  -0.930219
    N  N2    0.096416  0.922524  0.013726  -0.826340
    N  N3    0.610938  0.245149  0.372884  -0.946265
    N  N4    0.653499  0.327560  0.513726  -0.811778
    N  N5    0.111277  0.505275  0.877115  -0.940617
    N  N6    0.153839  0.422864  0.736273  -0.811500
    N  N7    0.638978  0.745149  0.377116  -0.935015
    N  N8    0.596416  0.827560  0.236274  -0.829519
    N  N9    0.389063  0.755190  0.627116  -0.944793
    N  N10   0.346501  0.672778  0.486274  -0.806468
    N  N11   0.889063  0.495064  0.122884  -0.948755
    N  N12   0.846501  0.577475  0.263726  -0.813692
    N  N13   0.361023  0.254850  0.622883  -0.940619
    N  N14   0.403584  0.172439  0.763725  -0.811627
    N  N15   0.139318  0.505445  0.372883  -0.940176
    N  N16   0.096756  0.423033  0.513725  -0.830277
    N  N17   0.610937  0.744979  0.872884  -0.948345
    N  N18   0.653499  0.827391  0.013726  -0.822912
    N  N19   0.110937  0.005105  0.377116  -0.945111
    N  N20   0.153499  0.922694  0.236274  -0.822665
    N  N21   0.389063  0.255021  0.127116  -0.944975
    N  N22   0.346501  0.172609  0.986274  -0.817534
    N  N23   0.888723  0.995234  0.622883  -0.951616
    N  N24   0.846162  0.077646  0.763725  -0.810822
    N  N25   0.638808  0.004935  0.372883  -0.938526
    N  N26   0.596247  0.922524  0.513725  -0.807445
    N  N27   0.139147  0.745489  0.877116  -0.940561
    N  N28   0.096586  0.827900  0.736274  -0.812702
    N  N29   0.861192  0.254850  0.122883  -0.949181
    N  N30   0.903753  0.172439  0.263725  -0.808482
    N  N31   0.639147  0.505105  0.872884  -0.943949
    N  N32   0.596586  0.422694  0.013726  -0.811095
    O  O1    0.038102  0.159644  0.178349  -0.701418
    O  O2    0.090440  0.211982  0.178350  -0.681384
    O  O3    0.160589  0.212316  0.071450  -0.686388
    O  O4    0.788017  0.409729  0.321651  -0.691046
    O  O5    0.839411  0.287854  0.428549  -0.702265
    O  O6    0.787685  0.339580  0.428549  -0.707330
    O  O7    0.910505  0.462401  0.428550  -0.702287
    O  O8    0.962232  0.410674  0.428550  -0.706169
    O  O9    0.913383  0.336703  0.399701  -0.814398
    O  O10   0.836534  0.413553  0.399701  -0.813238
    O  O11   0.835514  0.335684  0.349070  -0.636814
    O  O12   0.914400  0.414570  0.349070  -0.637159
    O  O13   0.086618  0.163468  0.100299  -0.789798
    O  O14   0.840356  0.961898  0.821651  -0.723034
    O  O15   0.788018  0.909560  0.821650  -0.691259
    O  O16   0.909560  0.788018  0.821650  -0.680627
    O  O17   0.961898  0.840356  0.821651  -0.710889
    O  O18   0.910504  0.962231  0.928549  -0.710108
    O  O19   0.962231  0.910504  0.928549  -0.720104
    O  O20   0.839411  0.787684  0.928550  -0.684744
    O  O21   0.163468  0.086618  0.100299  -0.787442
    O  O22   0.787684  0.839411  0.928550  -0.703803
    O  O23   0.836532  0.913382  0.899701  -0.810479
    O  O24   0.913382  0.836532  0.899701  -0.772708
    O  O25   0.914401  0.914401  0.849070  -0.624421
    O  O26   0.835515  0.835515  0.849070  -0.645263
    O  O27   0.085599  0.085599  0.150930  -0.669980
    O  O28   0.409899  0.462237  0.928348  -0.677199
    O  O29   0.462237  0.409899  0.928349  -0.702966
    O  O30   0.340695  0.288357  0.928349  -0.722587
    O  O31   0.288357  0.340695  0.928348  -0.692083
    O  O32   0.164485  0.164485  0.150930  -0.656462
    O  O33   0.339751  0.462570  0.821450  -0.685286
    O  O34   0.288024  0.410844  0.821450  -0.702782
    O  O35   0.410844  0.288023  0.821449  -0.740950
    O  O36   0.462571  0.339750  0.821449  -0.706932
    O  O37   0.413723  0.413721  0.850298  -0.792966
    O  O38   0.336873  0.336872  0.850298  -0.785716
    O  O39   0.335854  0.414740  0.900929  -0.652692
    O  O40   0.414740  0.335855  0.900929  -0.671092
    O  O41   0.340356  0.788187  0.428349  -0.723692
    O  O42   0.288018  0.840525  0.428350  -0.693264
    O  O43   0.409560  0.962067  0.428350  -0.684068
    O  O44   0.461898  0.909729  0.428349  -0.712177
    O  O45   0.410504  0.787854  0.321451  -0.705441
    O  O46   0.462231  0.839580  0.321451  -0.717850
    O  O47   0.339411  0.962401  0.321450  -0.685145
    O  O48   0.287684  0.910674  0.321450  -0.703820
    O  O49   0.336532  0.836703  0.350299  -0.807670
    O  O50   0.413382  0.913553  0.350299  -0.773649
    O  O51   0.414401  0.835684  0.400930  -0.620065
    O  O52   0.335515  0.914570  0.400930  -0.650145
    O  O53   0.186619  0.987178  0.002481  -0.634500
    O  O54   0.563296  0.262907  0.502481  -0.631395
    O  O55   0.711813  0.090441  0.678349  -0.707229
    O  O56   0.659475  0.038102  0.678350  -0.700562
    O  O57   0.063636  0.487517  0.747518  -0.635041
    O  O58   0.537933  0.159644  0.678350  -0.703572
    O  O59   0.590271  0.211983  0.678349  -0.705059
    O  O60   0.686619  0.762907  0.247519  -0.635488
    O  O61   0.211982  0.090440  0.178350  -0.695201
    O  O62   0.712146  0.160589  0.571451  -0.701623
    O  O63   0.660420  0.212315  0.571451  -0.746098
    O  O64   0.436704  0.737432  0.497519  -0.619463
    O  O65   0.537599  0.089495  0.571450  -0.699549
    O  O66   0.589326  0.037768  0.571450  -0.740524
    O  O67   0.936704  0.512822  0.252481  -0.618583
    O  O68   0.663297  0.086617  0.600299  -0.755818
    O  O69   0.586447  0.163466  0.600299  -0.753439
    O  O70   0.313382  0.237093  0.752480  -0.631239
    O  O71   0.664316  0.164486  0.650930  -0.689248
    O  O72   0.585430  0.085600  0.650930  -0.687534
    O  O73   0.159644  0.038102  0.178349  -0.727978
    O  O74   0.186959  0.487687  0.502480  -0.623260
    O  O75   0.563296  0.762737  0.002481  -0.625838
    O  O76   0.063296  0.987348  0.247519  -0.625420
    O  O77   0.212153  0.659984  0.571649  -0.705915
    O  O78   0.159815  0.712322  0.571649  -0.699990
    O  O79   0.436704  0.237263  0.997519  -0.622615
    O  O80   0.038273  0.590780  0.571649  -0.682969
    O  O81   0.090611  0.538442  0.571649  -0.723568
    O  O82   0.936365  0.012992  0.752480  -0.618119
    O  O83   0.212486  0.589835  0.678547  -0.700666
    O  O84   0.160759  0.538109  0.678547  -0.746109
    O  O85   0.686449  0.987177  0.502480  -0.627769
    O  O86   0.037939  0.660929  0.678549  -0.688460
    O  O87   0.186789  0.763247  0.747519  -0.628160
    O  O88   0.089666  0.712656  0.678549  -0.735282
    O  O89   0.037769  0.089496  0.071451  -0.704249
    O  O90   0.163637  0.663807  0.649700  -0.759511
    O  O91   0.813551  0.237093  0.252480  -0.616193
    O  O92   0.086787  0.586958  0.649700  -0.799274
    O  O93   0.164656  0.585939  0.599068  -0.679533
    O  O94   0.085770  0.664824  0.599068  -0.705807
    O  O95   0.686789  0.487348  0.002481  -0.615676
    O  O96   0.089496  0.037769  0.071451  -0.744681
    O  O97   0.538102  0.590441  0.071651  -0.682225
    O  O98   0.590440  0.538102  0.071650  -0.716279
    O  O99   0.711982  0.659644  0.071650  -0.692203
    O  O100  0.659644  0.711983  0.071651  -0.729203
    O  O101  0.537769  0.660589  0.178549  -0.694169
    O  O102  0.589496  0.712315  0.178549  -0.742689
    O  O103  0.712316  0.589495  0.178550  -0.708564
    O  O104  0.660589  0.537768  0.178550  -0.702570
    O  O105  0.586618  0.586617  0.149701  -0.833500
    O  O106  0.663468  0.663466  0.149701  -0.791552
    O  O107  0.585599  0.664486  0.099070  -0.687892
    O  O108  0.664485  0.585600  0.099070  -0.642606
    O  O109  0.212316  0.160589  0.071450  -0.706354
    O  O110  0.909559  0.288187  0.321651  -0.719313
    O  O111  0.961898  0.340525  0.321650  -0.690992
    O  O112  0.840356  0.462067  0.321650  -0.723557
    V  V1    0.874812  0.293197  0.375158  1.229420
    V  V2    0.875104  0.457057  0.375160  1.234268
    V  V3    0.793028  0.374982  0.375158  1.212889
    V  V4    0.956888  0.375273  0.375160  1.215818
    V  V5    0.875103  0.956888  0.875158  1.243828
    V  V6    0.874812  0.793027  0.875160  1.193192
    V  V7    0.956888  0.875103  0.875158  1.231067
    V  V8    0.793027  0.874812  0.875160  1.214202
    V  V9    0.043112  0.124897  0.124842  1.220197
    V  V10   0.375152  0.457227  0.874841  1.187577
    V  V11   0.375443  0.293367  0.874839  1.272938
    V  V12   0.293367  0.375443  0.874841  1.215662
    V  V13   0.457228  0.375151  0.874839  1.225237
    V  V14   0.206973  0.125188  0.124840  1.217170
    V  V15   0.124897  0.043112  0.124842  1.273291
    V  V16   0.375103  0.793197  0.374842  1.240299
    V  V17   0.374812  0.957057  0.374840  1.189521
    V  V18   0.456888  0.874982  0.374842  1.228251
    V  V19   0.293027  0.875273  0.374840  1.212275
    V  V20   0.125188  0.206973  0.124840  1.187092
    V  V21   0.706803  0.125188  0.624842  1.225409
    V  V22   0.542943  0.124896  0.624840  1.223413
    V  V23   0.625018  0.206972  0.624842  1.244119
    V  V24   0.624727  0.043112  0.624840  1.237024
    V  V25   0.207143  0.625236  0.625157  1.237117
    V  V26   0.043282  0.625528  0.625159  1.217194
    V  V27   0.125358  0.543452  0.625157  1.287258
    V  V28   0.125067  0.707312  0.625159  1.239326
    V  V29   0.543112  0.625188  0.125158  1.215667
    V  V30   0.706973  0.624896  0.125160  1.228819
    V  V31   0.624897  0.706972  0.125158  1.278960
    V  V32   0.625188  0.543112  0.125160  1.238026
