# Generated by REPEAT Assigner based on pymatgen
data_DB13-lvt-Syn022879
_audit_creation_date              2022-05-24
_audit_creation_method            REPEAT_Assigner
_cell_length_a                    32.740200
_cell_length_b                    32.740200
_cell_length_c                    30.650900
_cell_angle_alpha                 90.000000
_cell_angle_beta                  90.000000
_cell_angle_gamma                 90.000000
_cell_volume                      32855.334062
_symmetry_space_group_name_H-M    P1
_symmetry_Int_Tables_number       1
loop_
    _symmetry_equiv_pos_site_id
    _symmetry_equiv_pos_as_xyz
    1  x,y,z
loop_
    _atom_site_type_symbol
    _atom_site_label
    _atom_site_fract_x
    _atom_site_fract_y
    _atom_site_fract_z
    _atom_type_partial_charge
    C   C1    0.062445  0.530538  0.041140  0.934597
    C   C2    0.062445  0.453509  0.958860  0.935291
    C   C3    0.953509  0.453509  0.958860  0.935365
    C   C4    0.953509  0.530538  0.041140  0.935000
    C   C5    0.062445  0.953509  0.041140  0.762740
    C   C6    0.873344  0.865097  0.140910  -0.219456
    C   C7    0.839944  0.837447  0.152862  0.441600
    C   C8    0.829259  0.827401  0.194894  -0.505308
    C   C9    0.849982  0.848580  0.227090  0.514677
    C   C10   0.879887  0.875087  0.216822  -0.355773
    C   C11   0.894206  0.883538  0.174914  -0.046555
    C   C12   0.873593  0.869836  0.011147  0.053799
    C   C13   0.867073  0.856663  0.056722  -0.205416
    C   C14   0.883670  0.872342  0.095939  0.215708
    C   C15   0.912004  0.903485  0.087504  -0.167682
    C   C16   0.921104  0.917146  0.045069  -0.137351
    C   C17   0.902267  0.901523  0.007090  -0.092270
    C   C18   0.854511  0.853457  0.973921  -0.050885
    C   C19   0.819024  0.830529  0.976933  0.240340
    C   C20   0.818805  0.819061  0.900574  0.328144
    C   C21   0.852926  0.843568  0.895929  -0.242062
    C   C22   0.869462  0.862505  0.931445  -0.011155
    C   C23   0.795893  0.802055  0.859462  0.477800
    C   C24   0.642609  0.118950  0.640910  -0.221424
    C   C25   0.676010  0.146600  0.652862  0.444218
    C   C26   0.686695  0.156646  0.694894  -0.507720
    C   C27   0.665971  0.135466  0.727090  0.517436
    C   C28   0.636066  0.108959  0.716822  -0.357495
    C   C29   0.621747  0.100509  0.674914  -0.046171
    C   C30   0.642361  0.114211  0.511147  0.048887
    C   C31   0.648880  0.127384  0.556722  -0.203874
    C   C32   0.632283  0.111704  0.595939  0.216331
    C   C33   0.603949  0.080561  0.587504  -0.166611
    C   C34   0.594849  0.066901  0.545069  -0.140180
    C   C35   0.562445  0.030538  0.541140  0.766889
    C   C36   0.613687  0.082524  0.507090  -0.089333
    C   C37   0.661442  0.130590  0.473921  -0.045380
    C   C38   0.696929  0.153517  0.476933  0.236816
    C   C39   0.697149  0.164985  0.400574  0.322105
    C   C40   0.663028  0.140479  0.395929  -0.237838
    C   C41   0.646491  0.121541  0.431445  -0.013137
    C   C42   0.720060  0.181992  0.359462  0.480504
    C   C43   0.384903  0.607391  0.390910  -0.217946
    C   C44   0.412553  0.573990  0.402862  0.426161
    C   C45   0.422599  0.563305  0.444894  -0.472524
    C   C46   0.401420  0.584029  0.477090  0.506981
    C   C47   0.374913  0.613934  0.466822  -0.356429
    C   C48   0.366462  0.628253  0.424914  -0.048804
    C   C49   0.380164  0.607639  0.261147  0.046870
    C   C50   0.393337  0.601120  0.306722  -0.225752
    C   C51   0.562445  0.953509  0.458860  0.763221
    C   C52   0.377658  0.617717  0.345939  0.226529
    C   C53   0.346515  0.646051  0.337504  -0.178713
    C   C54   0.332854  0.655151  0.295069  -0.111284
    C   C55   0.348477  0.636313  0.257090  -0.097031
    C   C56   0.396543  0.588558  0.223921  -0.036916
    C   C57   0.419471  0.553071  0.226933  0.256088
    C   C58   0.953509  0.953509  0.041140  0.765890
    C   C59   0.430939  0.552851  0.150574  0.341735
    C   C60   0.406432  0.586972  0.145929  -0.284065
    C   C61   0.387495  0.603509  0.181445  0.002403
    C   C62   0.447945  0.529940  0.109462  0.527370
    C   C63   0.131050  0.376656  0.890910  -0.211835
    C   C64   0.103400  0.410056  0.902862  0.420863
    C   C65   0.093354  0.420741  0.944894  -0.467702
    C   C66   0.114534  0.400018  0.977090  0.503669
    C   C67   0.141041  0.370113  0.966822  -0.354200
    C   C68   0.149491  0.355794  0.924914  -0.053159
    C   C69   0.453509  0.953509  0.458860  0.765415
    C   C70   0.135789  0.376407  0.761147  0.040413
    C   C71   0.122616  0.382927  0.806722  -0.218968
    C   C72   0.138296  0.366330  0.845939  0.223303
    C   C73   0.169439  0.337996  0.837504  -0.180554
    C   C74   0.183099  0.328896  0.795069  -0.105850
    C   C75   0.167476  0.347733  0.757090  -0.098933
    C   C76   0.119410  0.395489  0.723921  -0.033428
    C   C77   0.096483  0.430976  0.726933  0.254299
    C   C78   0.085015  0.431195  0.650574  0.339993
    C   C79   0.109521  0.397074  0.645929  -0.286597
    C   C80   0.128459  0.380538  0.681445  0.005864
    C   C81   0.068008  0.454107  0.609462  0.529117
    C   C82   0.642609  0.865097  0.359090  -0.220190
    C   C83   0.676010  0.837447  0.347138  0.442407
    C   C84   0.686695  0.827401  0.305106  -0.506878
    C   C85   0.665971  0.848580  0.272910  0.517057
    C   C86   0.636066  0.875087  0.283178  -0.355996
    C   C87   0.621747  0.883538  0.325086  -0.047743
    C   C88   0.453509  0.030538  0.541140  0.766391
    C   C89   0.642361  0.869836  0.488853  0.047539
    C   C90   0.648880  0.856663  0.443278  -0.201287
    C   C91   0.632283  0.872342  0.404061  0.216091
    C   C92   0.603949  0.903485  0.412496  -0.169454
    C   C93   0.594849  0.917146  0.454931  -0.134934
    C   C94   0.613687  0.901523  0.492910  -0.091287
    C   C95   0.661442  0.853457  0.526079  -0.046536
    C   C96   0.696929  0.830529  0.523067  0.239221
    C   C97   0.697149  0.819061  0.599426  0.324365
    C   C98   0.663028  0.843568  0.604071  -0.241451
    C   C99   0.646491  0.862505  0.568555  -0.010963
    C   C100  0.720060  0.802055  0.640538  0.479218
    C   C101  0.873344  0.118950  0.859090  -0.223361
    C   C102  0.839944  0.146600  0.847138  0.446816
    C   C103  0.829259  0.156646  0.805106  -0.510090
    C   C104  0.849982  0.135466  0.772910  0.517140
    C   C105  0.879887  0.108959  0.783178  -0.356292
    C   C106  0.894206  0.100509  0.825086  -0.046124
    C   C107  0.873593  0.114211  0.988853  0.054763
    C   C108  0.867073  0.127384  0.943278  -0.209180
    C   C109  0.883670  0.111704  0.904061  0.218746
    C   C110  0.912004  0.080561  0.912496  -0.167668
    C   C111  0.921104  0.066901  0.954931  -0.140009
    C   C112  0.902267  0.082524  0.992910  -0.091740
    C   C113  0.854511  0.130590  0.026079  -0.047024
    C   C114  0.819024  0.153517  0.023067  0.237367
    C   C115  0.818805  0.164985  0.099426  0.324752
    C   C116  0.296491  0.687555  0.291140  0.745176
    C   C117  0.852926  0.140479  0.104071  -0.239164
    C   C118  0.869462  0.121541  0.068555  -0.014186
    C   C119  0.795893  0.181992  0.140538  0.479353
    C   C120  0.131050  0.607391  0.109090  -0.214921
    C   C121  0.103400  0.573990  0.097138  0.421644
    C   C122  0.093354  0.563305  0.055106  -0.467889
    C   C123  0.114534  0.584029  0.022910  0.502799
    C   C124  0.141041  0.613934  0.033178  -0.351917
    C   C125  0.149491  0.628253  0.075086  -0.052478
    C   C126  0.135789  0.607639  0.238853  0.044399
    C   C127  0.122616  0.601120  0.193278  -0.221829
    C   C128  0.138296  0.617717  0.154061  0.226648
    C   C129  0.169439  0.646051  0.162496  -0.181257
    C   C130  0.183099  0.655151  0.204931  -0.108072
    C   C131  0.167476  0.636313  0.242910  -0.097802
    C   C132  0.119410  0.588558  0.276079  -0.038077
    C   C133  0.219462  0.687555  0.208860  0.742324
    C   C134  0.096483  0.553071  0.273067  0.257458
    C   C135  0.085015  0.552851  0.349426  0.340810
    C   C136  0.109521  0.586972  0.354071  -0.286217
    C   C137  0.128459  0.603509  0.318555  0.004884
    C   C138  0.068008  0.529940  0.390538  0.528893
    C   C139  0.384903  0.376656  0.609090  -0.215155
    C   C140  0.412553  0.410056  0.597138  0.422506
    C   C141  0.422599  0.420741  0.555106  -0.470776
    C   C142  0.401420  0.400018  0.522910  0.507993
    C   C143  0.374913  0.370113  0.533178  -0.356672
    C   C144  0.366462  0.355794  0.575086  -0.051033
    C   C145  0.380164  0.376407  0.738853  0.038107
    C   C146  0.393337  0.382927  0.693278  -0.220318
    C   C147  0.377658  0.366330  0.654061  0.225591
    C   C148  0.346515  0.337996  0.662496  -0.178829
    C   C149  0.332854  0.328896  0.704931  -0.110611
    C   C150  0.348477  0.347733  0.742910  -0.095685
    C   C151  0.219462  0.796491  0.208860  0.960860
    C   C152  0.396543  0.395489  0.776079  -0.028096
    C   C153  0.419471  0.430976  0.773067  0.250453
    C   C154  0.430939  0.431195  0.849426  0.339115
    C   C155  0.406432  0.397074  0.854071  -0.284463
    C   C156  0.387495  0.380538  0.818555  0.001145
    C   C157  0.447945  0.454107  0.890538  0.528490
    C   C158  0.142609  0.118950  0.859090  -0.221574
    C   C159  0.176010  0.146600  0.847138  0.444302
    C   C160  0.186695  0.156646  0.805106  -0.508092
    C   C161  0.165971  0.135466  0.772910  0.517930
    C   C162  0.136066  0.108959  0.783178  -0.357554
    C   C163  0.121747  0.100509  0.825086  -0.045940
    C   C164  0.142361  0.114211  0.988853  0.048823
    C   C165  0.148880  0.127384  0.943278  -0.203879
    C   C166  0.132283  0.111704  0.904061  0.216319
    C   C167  0.103949  0.080561  0.912496  -0.166616
    C   C168  0.296491  0.796491  0.291140  0.959690
    C   C169  0.094849  0.066901  0.954931  -0.139819
    C   C170  0.113687  0.082524  0.992910  -0.089690
    C   C171  0.161442  0.130590  0.026079  -0.045065
    C   C172  0.196929  0.153517  0.023067  0.236778
    C   C173  0.197149  0.164985  0.099426  0.322513
    C   C174  0.163028  0.140479  0.104071  -0.238313
    C   C175  0.146491  0.121541  0.068555  -0.013453
    C   C176  0.220060  0.181992  0.140538  0.480051
    C   C177  0.373344  0.865097  0.359090  -0.219599
    C   C178  0.339944  0.837447  0.347138  0.441678
    C   C179  0.329259  0.827401  0.305106  -0.505662
    C   C180  0.349982  0.848580  0.272910  0.515151
    C   C181  0.379887  0.875087  0.283178  -0.355815
    C   C182  0.394206  0.883538  0.325086  -0.046338
    C   C183  0.373593  0.869836  0.488853  0.053741
    C   C184  0.367073  0.856663  0.443278  -0.205421
    C   C185  0.383670  0.872342  0.404061  0.215694
    C   C186  0.412004  0.903485  0.412496  -0.167685
    C   C187  0.421104  0.917146  0.454931  -0.136993
    C   C188  0.402267  0.901523  0.492910  -0.092629
    C   C189  0.354511  0.853457  0.526079  -0.050581
    C   C190  0.319024  0.830529  0.523067  0.240310
    C   C191  0.318805  0.819061  0.599426  0.328550
    C   C192  0.352926  0.843568  0.604071  -0.242538
    C   C193  0.369462  0.862505  0.568555  -0.011466
    C   C194  0.295893  0.802055  0.640538  0.477352
    C   C195  0.219462  0.296491  0.791140  0.740902
    C   C196  0.631050  0.376656  0.609090  -0.211519
    C   C197  0.603400  0.410056  0.597138  0.420629
    C   C198  0.593354  0.420741  0.555106  -0.467124
    C   C199  0.614534  0.400018  0.522910  0.503335
    C   C200  0.641041  0.370113  0.533178  -0.354399
    C   C201  0.649491  0.355794  0.575086  -0.053416
    C   C202  0.635789  0.376407  0.738853  0.040235
    C   C203  0.622616  0.382927  0.693278  -0.218816
    C   C204  0.638296  0.366330  0.654061  0.223186
    C   C205  0.669439  0.337996  0.662496  -0.180636
    C   C206  0.683099  0.328896  0.704931  -0.106023
    C   C207  0.667476  0.347733  0.742910  -0.098462
    C   C208  0.619410  0.395489  0.776079  -0.033473
    C   C209  0.596483  0.430976  0.773067  0.254186
    C   C210  0.585015  0.431195  0.849426  0.339531
    C   C211  0.609521  0.397074  0.854071  -0.286132
    C   C212  0.628459  0.380538  0.818555  0.006108
    C   C213  0.568008  0.454107  0.890538  0.529610
    C   C214  0.296491  0.296491  0.708860  0.743702
    C   C215  0.884903  0.607391  0.109090  -0.217687
    C   C216  0.912553  0.573990  0.097138  0.426001
    C   C217  0.922599  0.563305  0.055106  -0.472057
    C   C218  0.901420  0.584029  0.022910  0.506653
    C   C219  0.874913  0.613934  0.033178  -0.356778
    C   C220  0.866462  0.628253  0.075086  -0.048971
    C   C221  0.880164  0.607639  0.238853  0.046756
    C   C222  0.893337  0.601120  0.193278  -0.225635
    C   C223  0.877658  0.617717  0.154061  0.226478
    C   C224  0.846515  0.646051  0.162496  -0.178852
    C   C225  0.832854  0.655151  0.204931  -0.111411
    C   C226  0.848477  0.636313  0.242910  -0.096619
    C   C227  0.896543  0.588558  0.276079  -0.037062
    C   C228  0.919471  0.553071  0.273067  0.256030
    C   C229  0.930939  0.552851  0.349426  0.341307
    C   C230  0.906432  0.586972  0.354071  -0.283676
    C   C231  0.887495  0.603509  0.318555  0.002765
    C   C232  0.953509  0.030538  0.958860  0.766867
    C   C233  0.296491  0.187555  0.708860  0.961355
    C   C234  0.947945  0.529940  0.390538  0.527872
    C   C235  0.373344  0.118950  0.640910  -0.223513
    C   C236  0.339944  0.146600  0.652862  0.446900
    C   C237  0.329259  0.156646  0.694894  -0.510447
    C   C238  0.349982  0.135466  0.727090  0.517616
    C   C239  0.379887  0.108959  0.716822  -0.356335
    C   C240  0.394206  0.100509  0.674914  -0.045902
    C   C241  0.373593  0.114211  0.511147  0.054704
    C   C242  0.367073  0.127384  0.556722  -0.209189
    C   C243  0.383670  0.111704  0.595939  0.218742
    C   C244  0.412004  0.080561  0.587504  -0.167675
    C   C245  0.421104  0.066901  0.545069  -0.139646
    C   C246  0.402267  0.082524  0.507090  -0.092103
    C   C247  0.354511  0.130590  0.473921  -0.046710
    C   C248  0.319024  0.153517  0.476933  0.237330
    C   C249  0.219462  0.187555  0.791140  0.961079
    C   C250  0.318805  0.164985  0.400574  0.325154
    C   C251  0.352926  0.140479  0.395929  -0.239635
    C   C252  0.369462  0.121541  0.431445  -0.014506
    C   C253  0.295893  0.181992  0.359462  0.478907
    C   C254  0.142609  0.865097  0.140910  -0.220350
    C   C255  0.176010  0.837447  0.152862  0.442502
    C   C256  0.186695  0.827401  0.194894  -0.507252
    C   C257  0.165971  0.848580  0.227090  0.517543
    C   C258  0.136066  0.875087  0.216822  -0.356045
    C   C259  0.121747  0.883538  0.174914  -0.047515
    C   C260  0.142361  0.869836  0.011147  0.047481
    C   C261  0.148880  0.856663  0.056722  -0.201300
    C   C262  0.132283  0.872342  0.095939  0.216090
    C   C263  0.103949  0.903485  0.087504  -0.169466
    C   C264  0.094849  0.917146  0.045069  -0.134564
    C   C265  0.113687  0.901523  0.007090  -0.091654
    C   C266  0.161442  0.853457  0.973921  -0.046225
    C   C267  0.196929  0.830529  0.976933  0.239186
    C   C268  0.197149  0.819061  0.900574  0.324772
    C   C269  0.163028  0.843568  0.895929  -0.241929
    C   C270  0.146491  0.862505  0.931445  -0.011277
    C   C271  0.220060  0.802055  0.859462  0.478772
    C   C272  0.884903  0.376656  0.890910  -0.214850
    C   C273  0.912553  0.410056  0.902862  0.422270
    C   C274  0.922599  0.420741  0.944894  -0.470188
    C   C275  0.901420  0.400018  0.977090  0.507647
    C   C276  0.874913  0.370113  0.966822  -0.356858
    C   C277  0.866462  0.355794  0.924914  -0.051288
    C   C278  0.719462  0.296491  0.708860  0.741238
    C   C279  0.880164  0.376407  0.761147  0.037952
    C   C280  0.893337  0.382927  0.806722  -0.220185
    C   C281  0.877658  0.366330  0.845939  0.225498
    C   C282  0.846515  0.337996  0.837504  -0.178935
    C   C283  0.832854  0.328896  0.795069  -0.110763
    C   C284  0.848477  0.347733  0.757090  -0.095237
    C   C285  0.896543  0.395489  0.723921  -0.028154
    C   C286  0.919471  0.430976  0.726933  0.250352
    C   C287  0.930939  0.431195  0.650574  0.338645
    C   C288  0.906432  0.397074  0.645929  -0.283997
    C   C289  0.887495  0.380538  0.681445  0.001395
    C   C290  0.947945  0.454107  0.609462  0.528994
    C   C291  0.631050  0.607391  0.390910  -0.214612
    C   C292  0.603400  0.573990  0.402862  0.421440
    C   C293  0.593354  0.563305  0.444894  -0.467375
    C   C294  0.796491  0.296491  0.791140  0.744029
    C   C295  0.614534  0.584029  0.477090  0.502470
    C   C296  0.641041  0.613934  0.466822  -0.352103
    C   C297  0.649491  0.628253  0.424914  -0.052734
    C   C298  0.635789  0.607639  0.261147  0.044216
    C   C299  0.622616  0.601120  0.306722  -0.221676
    C   C300  0.638296  0.617717  0.345939  0.226532
    C   C301  0.669439  0.646051  0.337504  -0.181341
    C   C302  0.683099  0.655151  0.295069  -0.108247
    C   C303  0.667476  0.636313  0.257090  -0.097328
    C   C304  0.619410  0.588558  0.223921  -0.038125
    C   C305  0.596483  0.553071  0.226933  0.257351
    C   C306  0.585015  0.552851  0.150574  0.340341
    C   C307  0.609521  0.586972  0.145929  -0.285751
    C   C308  0.628459  0.603509  0.181445  0.005130
    C   C309  0.568008  0.529940  0.109462  0.529400
    C   C310  0.796491  0.187555  0.791140  0.960714
    C   C311  0.719462  0.187555  0.708860  0.960424
    C   C312  0.796491  0.687555  0.208860  0.745507
    C   C313  0.719462  0.687555  0.291140  0.742660
    C   C314  0.719462  0.796491  0.291140  0.960205
    C   C315  0.062445  0.030538  0.958860  0.766415
    C   C316  0.796491  0.796491  0.208860  0.959049
    C   C317  0.453509  0.453509  0.541140  0.936255
    C   C318  0.453509  0.530538  0.458860  0.935757
    C   C319  0.562445  0.530538  0.458860  0.933782
    C   C320  0.562445  0.453509  0.541140  0.934399
    Cu  Cu1   0.007977  0.963350  0.969372  0.904383
    Cu  Cu2   0.007977  0.020697  0.030628  0.904073
    Cu  Cu3   0.507977  0.020697  0.469372  0.904069
    Cu  Cu4   0.507977  0.963350  0.530628  0.904377
    Cu  Cu5   0.286650  0.742023  0.219372  0.958824
    Cu  Cu6   0.229303  0.742023  0.280628  0.958947
    Cu  Cu7   0.229303  0.242023  0.719372  0.959165
    Cu  Cu8   0.286650  0.242023  0.780628  0.958622
    Cu  Cu9   0.729303  0.242023  0.780628  0.959147
    Cu  Cu10  0.786650  0.242023  0.719372  0.958607
    Cu  Cu11  0.786650  0.742023  0.280628  0.958807
    Cu  Cu12  0.729303  0.742023  0.219372  0.958931
    Cu  Cu13  0.507977  0.463350  0.469372  1.017693
    Cu  Cu14  0.507977  0.520697  0.530628  1.018276
    Cu  Cu15  0.007977  0.520697  0.969372  1.018283
    Cu  Cu16  0.007977  0.463350  0.030628  1.017704
    F   F1    0.839681  0.846463  0.268399  -0.204740
    F   F2    0.818228  0.818925  0.121629  -0.200887
    F   F3    0.676272  0.137584  0.768399  -0.204930
    F   F4    0.697726  0.165122  0.621629  -0.201118
    F   F5    0.403537  0.573728  0.518399  -0.201369
    F   F6    0.431075  0.552274  0.371629  -0.189870
    F   F7    0.112416  0.410319  0.018399  -0.200945
    F   F8    0.084878  0.431772  0.871629  -0.189216
    F   F9    0.676272  0.846463  0.231601  -0.205460
    F   F10   0.697726  0.818925  0.378371  -0.200792
    F   F11   0.839681  0.137584  0.731601  -0.204892
    F   F12   0.818228  0.165122  0.878371  -0.201888
    F   F13   0.112416  0.573728  0.981601  -0.200964
    F   F14   0.084878  0.552274  0.128371  -0.189162
    F   F15   0.403537  0.410319  0.481601  -0.202097
    F   F16   0.431075  0.431772  0.628371  -0.189347
    F   F17   0.176272  0.137584  0.731601  -0.205054
    F   F18   0.197726  0.165122  0.878371  -0.201154
    F   F19   0.339681  0.846463  0.231601  -0.204859
    F   F20   0.318228  0.818925  0.378371  -0.200922
    F   F21   0.612416  0.410319  0.481601  -0.200838
    F   F22   0.584878  0.431772  0.628371  -0.189180
    F   F23   0.903537  0.573728  0.981601  -0.201237
    F   F24   0.931075  0.552274  0.128371  -0.189846
    F   F25   0.339681  0.137584  0.768399  -0.205011
    F   F26   0.318228  0.165122  0.621629  -0.201926
    F   F27   0.176272  0.846463  0.268399  -0.205581
    F   F28   0.197726  0.818925  0.121629  -0.200831
    F   F29   0.903537  0.410319  0.018399  -0.201986
    F   F30   0.931075  0.431772  0.871629  -0.189308
    F   F31   0.612416  0.573728  0.518399  -0.200856
    F   F32   0.584878  0.552274  0.371629  -0.189135
    H   H1    0.891470  0.891376  0.245007  0.163388
    H   H2    0.918829  0.903477  0.168305  0.160188
    H   H3    0.855733  0.826599  0.062245  0.105991
    H   H4    0.925407  0.919824  0.114630  0.091248
    H   H5    0.908501  0.916399  0.977169  0.112591
    H   H6    0.800015  0.828427  0.003585  0.066624
    H   H7    0.864584  0.847576  0.863681  0.134266
    H   H8    0.892890  0.884419  0.927527  0.105929
    H   H9    0.755622  0.755622  0.842064  0.343207
    H   H10   0.759084  0.768971  0.899007  0.238221
    H   H11   0.624483  0.092670  0.745007  0.163662
    H   H12   0.597124  0.080570  0.668305  0.160334
    H   H13   0.660220  0.157448  0.562245  0.105239
    H   H14   0.590546  0.064223  0.614630  0.090908
    H   H15   0.607452  0.067648  0.477169  0.112997
    H   H16   0.715938  0.155620  0.503585  0.067852
    H   H17   0.651369  0.136470  0.363681  0.133666
    H   H18   0.623063  0.099627  0.427527  0.104734
    H   H19   0.760331  0.228424  0.342064  0.342895
    H   H20   0.756869  0.215075  0.399007  0.237574
    H   H21   0.358624  0.625517  0.495007  0.163408
    H   H22   0.346523  0.652876  0.418305  0.164194
    H   H23   0.423401  0.589780  0.312245  0.119596
    H   H24   0.330176  0.659454  0.364630  0.101978
    H   H25   0.333601  0.642548  0.227169  0.110781
    H   H26   0.421573  0.534062  0.253585  0.060567
    H   H27   0.402424  0.598631  0.113681  0.152095
    H   H28   0.365581  0.626937  0.177527  0.106035
    H   H29   0.494378  0.489669  0.092064  0.359145
    H   H30   0.481029  0.493131  0.149007  0.275342
    H   H31   0.157330  0.358530  0.995007  0.163351
    H   H32   0.169430  0.331171  0.918305  0.165384
    H   H33   0.092552  0.394267  0.812245  0.117687
    H   H34   0.185777  0.324593  0.864630  0.102130
    H   H35   0.182352  0.341499  0.727169  0.110973
    H   H36   0.094380  0.449985  0.753585  0.060662
    H   H37   0.113530  0.385416  0.613681  0.152230
    H   H38   0.150373  0.357110  0.677527  0.104886
    H   H39   0.021576  0.494378  0.592064  0.357022
    H   H40   0.034925  0.490916  0.649007  0.273859
    H   H41   0.624483  0.891376  0.254993  0.163421
    H   H42   0.597124  0.903477  0.331695  0.160657
    H   H43   0.660220  0.826599  0.437755  0.104535
    H   H44   0.590546  0.919824  0.385370  0.091735
    H   H45   0.607452  0.916399  0.522831  0.112796
    H   H46   0.715938  0.828427  0.496415  0.066918
    H   H47   0.651369  0.847576  0.636319  0.134450
    H   H48   0.623063  0.884419  0.572473  0.105164
    H   H49   0.760331  0.755622  0.657936  0.342557
    H   H50   0.756869  0.768971  0.600993  0.237606
    H   H51   0.891470  0.092670  0.754993  0.163202
    H   H52   0.918829  0.080570  0.831695  0.160348
    H   H53   0.855733  0.157448  0.937755  0.106953
    H   H54   0.925407  0.064223  0.885370  0.091663
    H   H55   0.908501  0.067648  0.022831  0.112925
    H   H56   0.800015  0.155620  0.996415  0.067657
    H   H57   0.864584  0.136470  0.136319  0.134161
    H   H58   0.892890  0.099627  0.072473  0.105675
    H   H59   0.755622  0.228424  0.157936  0.343286
    H   H60   0.759084  0.215075  0.100993  0.238058
    H   H61   0.157330  0.625517  0.004993  0.162449
    H   H62   0.169430  0.652876  0.081695  0.164725
    H   H63   0.092552  0.589780  0.187755  0.117955
    H   H64   0.185777  0.659454  0.135370  0.102879
    H   H65   0.182352  0.642548  0.272831  0.110850
    H   H66   0.094380  0.534062  0.246415  0.059902
    H   H67   0.113530  0.598631  0.386319  0.152213
    H   H68   0.150373  0.626937  0.322473  0.106118
    H   H69   0.021576  0.489669  0.407936  0.358568
    H   H70   0.034925  0.493131  0.350993  0.274589
    H   H71   0.358624  0.358530  0.504993  0.163849
    H   H72   0.346523  0.331171  0.581695  0.164534
    H   H73   0.423401  0.394267  0.687755  0.118239
    H   H74   0.330176  0.324593  0.635370  0.102156
    H   H75   0.333601  0.341499  0.772831  0.110911
    H   H76   0.421573  0.449985  0.746415  0.061574
    H   H77   0.402424  0.385416  0.886319  0.152598
    H   H78   0.365581  0.357110  0.822473  0.105682
    H   H79   0.494378  0.494378  0.907936  0.360100
    H   H80   0.481029  0.490916  0.850993  0.274318
    H   H81   0.124483  0.092670  0.754993  0.163542
    H   H82   0.097124  0.080570  0.831695  0.160231
    H   H83   0.160220  0.157448  0.937755  0.105276
    H   H84   0.090546  0.064223  0.885370  0.090891
    H   H85   0.107452  0.067648  0.022831  0.113009
    H   H86   0.215938  0.155620  0.996415  0.067817
    H   H87   0.151369  0.136470  0.136319  0.133881
    H   H88   0.123063  0.099627  0.072473  0.105039
    H   H89   0.260331  0.228424  0.157936  0.342913
    H   H90   0.256869  0.215075  0.100993  0.237403
    H   H91   0.391470  0.891376  0.254993  0.163264
    H   H92   0.418829  0.903477  0.331695  0.160088
    H   H93   0.355733  0.826599  0.437755  0.106027
    H   H94   0.425407  0.919824  0.385370  0.091232
    H   H95   0.408501  0.916399  0.522831  0.112605
    H   H96   0.300015  0.828427  0.496415  0.066587
    H   H97   0.364584  0.847576  0.636319  0.134480
    H   H98   0.392890  0.884419  0.572473  0.106233
    H   H99   0.255622  0.755622  0.657936  0.343225
    H   H100  0.259084  0.768971  0.600993  0.238053
    H   H101  0.657330  0.358530  0.504993  0.163579
    H   H102  0.669430  0.331171  0.581695  0.165539
    H   H103  0.592552  0.394267  0.687755  0.117656
    H   H104  0.685777  0.324593  0.635370  0.102110
    H   H105  0.682352  0.341499  0.772831  0.110924
    H   H106  0.594380  0.449985  0.746415  0.060676
    H   H107  0.613530  0.385416  0.886319  0.151987
    H   H108  0.650373  0.357110  0.822473  0.104584
    H   H109  0.521576  0.494378  0.907936  0.356869
    H   H110  0.534925  0.490916  0.850993  0.273700
    H   H111  0.858624  0.625517  0.004993  0.163699
    H   H112  0.846523  0.652876  0.081695  0.164342
    H   H113  0.923401  0.589780  0.187755  0.119565
    H   H114  0.830176  0.659454  0.135370  0.101967
    H   H115  0.833601  0.642548  0.272831  0.110745
    H   H116  0.921573  0.534062  0.246415  0.060574
    H   H117  0.902424  0.598631  0.386319  0.151863
    H   H118  0.865581  0.626937  0.322473  0.105707
    H   H119  0.994378  0.489669  0.407936  0.358999
    H   H120  0.981029  0.493131  0.350993  0.275192
    H   H121  0.391470  0.092670  0.745007  0.163077
    H   H122  0.418829  0.080570  0.668305  0.160246
    H   H123  0.355733  0.157448  0.562245  0.106991
    H   H124  0.425407  0.064223  0.614630  0.091648
    H   H125  0.408501  0.067648  0.477169  0.112940
    H   H126  0.300015  0.155620  0.503585  0.067621
    H   H127  0.364584  0.136470  0.363681  0.134375
    H   H128  0.392890  0.099627  0.427527  0.105981
    H   H129  0.255622  0.228424  0.342064  0.343303
    H   H130  0.259084  0.215075  0.399007  0.237885
    H   H131  0.124483  0.891376  0.245007  0.163298
    H   H132  0.097124  0.903477  0.168305  0.160554
    H   H133  0.160220  0.826599  0.062245  0.104573
    H   H134  0.090546  0.919824  0.114630  0.091722
    H   H135  0.107452  0.916399  0.977169  0.112810
    H   H136  0.215938  0.828427  0.003585  0.066884
    H   H137  0.151369  0.847576  0.863681  0.134667
    H   H138  0.123063  0.884419  0.927527  0.105468
    H   H139  0.260331  0.755622  0.842064  0.342576
    H   H140  0.256869  0.768971  0.899007  0.237434
    H   H141  0.858624  0.358530  0.995007  0.164073
    H   H142  0.846523  0.331171  0.918305  0.164684
    H   H143  0.923401  0.394267  0.812245  0.118209
    H   H144  0.830176  0.324593  0.864630  0.102146
    H   H145  0.833601  0.341499  0.727169  0.110868
    H   H146  0.921573  0.449985  0.753585  0.061585
    H   H147  0.902424  0.385416  0.613681  0.152357
    H   H148  0.865581  0.357110  0.677527  0.105377
    H   H149  0.994378  0.494378  0.592064  0.359952
    H   H150  0.981029  0.490916  0.649007  0.274160
    H   H151  0.657330  0.625517  0.495007  0.162673
    H   H152  0.669430  0.652876  0.418305  0.164877
    H   H153  0.592552  0.589780  0.312245  0.117925
    H   H154  0.685777  0.659454  0.364630  0.102861
    H   H155  0.682352  0.642548  0.227169  0.110800
    H   H156  0.594380  0.534062  0.253585  0.059916
    H   H157  0.613530  0.598631  0.113681  0.151970
    H   H158  0.650373  0.626937  0.177527  0.105816
    H   H159  0.521576  0.489669  0.092064  0.358420
    H   H160  0.534925  0.493131  0.149007  0.274433
    N   N1    0.803214  0.812601  0.941055  -0.517727
    N   N2    0.761683  0.777458  0.865434  -0.608442
    N   N3    0.712739  0.171446  0.441055  -0.515223
    N   N4    0.754271  0.206588  0.365434  -0.607642
    N   N5    0.437399  0.537261  0.191055  -0.539361
    N   N6    0.472542  0.495729  0.115434  -0.688181
    N   N7    0.078554  0.446786  0.691055  -0.537174
    N   N8    0.043412  0.488317  0.615434  -0.686928
    N   N9    0.712739  0.812601  0.558945  -0.516600
    N   N10   0.754271  0.777458  0.634566  -0.606872
    N   N11   0.803214  0.171446  0.058945  -0.516401
    N   N12   0.761683  0.206588  0.134566  -0.608427
    N   N13   0.078554  0.537261  0.308945  -0.538331
    N   N14   0.043412  0.495729  0.384566  -0.688410
    N   N15   0.437399  0.446786  0.808945  -0.535740
    N   N16   0.472542  0.488317  0.884566  -0.688001
    N   N17   0.212739  0.171446  0.058945  -0.515139
    N   N18   0.254271  0.206588  0.134566  -0.607327
    N   N19   0.303214  0.812601  0.558945  -0.517645
    N   N20   0.261683  0.777458  0.634566  -0.608131
    N   N21   0.578554  0.446786  0.808945  -0.537066
    N   N22   0.543412  0.488317  0.884566  -0.686922
    N   N23   0.937399  0.537261  0.308945  -0.539285
    N   N24   0.972542  0.495729  0.384566  -0.688194
    N   N25   0.303214  0.171446  0.441055  -0.516315
    N   N26   0.261683  0.206588  0.365434  -0.608111
    N   N27   0.212739  0.812601  0.941055  -0.516519
    N   N28   0.254271  0.777458  0.865434  -0.606559
    N   N29   0.937399  0.446786  0.691055  -0.535633
    N   N30   0.972542  0.488317  0.615434  -0.688006
    N   N31   0.578554  0.537261  0.191055  -0.538227
    N   N32   0.543412  0.495729  0.115434  -0.688414
    O   O1    0.049270  0.998403  0.944436  -0.629398
    O   O2    0.049270  0.498403  0.055564  -0.659975
    O   O3    0.049270  0.544041  0.006815  -0.615111
    O   O4    0.049270  0.440005  0.993185  -0.615598
    O   O5    0.049270  0.485643  0.944436  -0.660649
    O   O6    0.966683  0.440005  0.993185  -0.615318
    O   O7    0.966683  0.485643  0.944436  -0.660685
    O   O8    0.966683  0.498403  0.055564  -0.659925
    O   O9    0.966683  0.544041  0.006815  -0.615503
    O   O10   0.049270  0.985643  0.055564  -0.628263
    O   O11   0.049270  0.940005  0.006815  -0.515873
    O   O12   0.812002  0.809816  0.823981  -0.497319
    O   O13   0.549270  0.998403  0.555564  -0.629646
    O   O14   0.703951  0.174231  0.323981  -0.498054
    O   O15   0.549270  0.044041  0.506815  -0.516329
    O   O16   0.549270  0.940005  0.493185  -0.516029
    O   O17   0.440184  0.546049  0.073981  -0.514373
    O   O18   0.549270  0.985643  0.444436  -0.628513
    O   O19   0.466683  0.940005  0.493185  -0.515965
    O   O20   0.075769  0.437998  0.573981  -0.514038
    O   O21   0.466683  0.985643  0.444436  -0.629626
    O   O22   0.466683  0.998403  0.555564  -0.629873
    O   O23   0.466683  0.044041  0.506815  -0.515617
    O   O24   0.703951  0.809816  0.676019  -0.497453
    O   O25   0.966683  0.985643  0.055564  -0.629878
    O   O26   0.812002  0.174231  0.176019  -0.497800
    O   O27   0.264357  0.700730  0.305564  -0.641350
    O   O28   0.309995  0.700730  0.256815  -0.505224
    O   O29   0.075769  0.546049  0.426019  -0.514075
    O   O30   0.205959  0.700730  0.243185  -0.505105
    O   O31   0.251597  0.700730  0.194436  -0.640161
    O   O32   0.440184  0.437998  0.926019  -0.514546
    O   O33   0.205959  0.783317  0.243185  -0.625767
    O   O34   0.251597  0.783317  0.194436  -0.648913
    O   O35   0.966683  0.940005  0.006815  -0.516122
    O   O36   0.264357  0.783317  0.305564  -0.648006
    O   O37   0.203951  0.174231  0.176019  -0.497953
    O   O38   0.309995  0.783317  0.256815  -0.624673
    O   O39   0.312002  0.809816  0.676019  -0.497219
    O   O40   0.251597  0.283317  0.805564  -0.639880
    O   O41   0.205959  0.283317  0.756815  -0.504016
    O   O42   0.575769  0.437998  0.926019  -0.514160
    O   O43   0.309995  0.283317  0.743185  -0.504397
    O   O44   0.264357  0.283317  0.694436  -0.640521
    O   O45   0.940184  0.546049  0.426019  -0.514496
    O   O46   0.309995  0.200730  0.743185  -0.625272
    O   O47   0.264357  0.200730  0.694436  -0.648588
    O   O48   0.312002  0.174231  0.323981  -0.497702
    O   O49   0.251597  0.200730  0.805564  -0.648737
    O   O50   0.205959  0.200730  0.756815  -0.626862
    O   O51   0.203951  0.809816  0.823981  -0.497356
    O   O52   0.751597  0.283317  0.694436  -0.640063
    O   O53   0.966683  0.044041  0.993185  -0.515773
    O   O54   0.705959  0.283317  0.743185  -0.504253
    O   O55   0.940184  0.437998  0.573981  -0.514673
    O   O56   0.809995  0.283317  0.756815  -0.504635
    O   O57   0.764357  0.283317  0.805564  -0.640702
    O   O58   0.575769  0.546049  0.073981  -0.514202
    O   O59   0.809995  0.200730  0.756815  -0.624919
    O   O60   0.764357  0.200730  0.805564  -0.648238
    O   O61   0.751597  0.200730  0.694436  -0.648384
    O   O62   0.705959  0.200730  0.743185  -0.626505
    O   O63   0.966683  0.998403  0.944436  -0.630125
    O   O64   0.764357  0.700730  0.194436  -0.641533
    O   O65   0.809995  0.700730  0.243185  -0.505464
    O   O66   0.705959  0.700730  0.256815  -0.505342
    O   O67   0.751597  0.700730  0.305564  -0.640344
    O   O68   0.705959  0.783317  0.256815  -0.625410
    O   O69   0.751597  0.783317  0.305564  -0.648559
    O   O70   0.764357  0.783317  0.194436  -0.647657
    O   O71   0.809995  0.783317  0.243185  -0.624320
    O   O72   0.466683  0.485643  0.555564  -0.661045
    O   O73   0.466683  0.440005  0.506815  -0.615623
    O   O74   0.049270  0.044041  0.993185  -0.516175
    O   O75   0.466683  0.544041  0.493185  -0.615795
    O   O76   0.466683  0.498403  0.444436  -0.660254
    O   O77   0.549270  0.544041  0.493185  -0.614813
    O   O78   0.549270  0.498403  0.444436  -0.659618
    O   O79   0.549270  0.485643  0.555564  -0.660276
    O   O80   0.549270  0.440005  0.506815  -0.615288
