# Generated by REPEAT Assigner based on pymatgen
data_DB13-lvt-Syn038997
_audit_creation_date              2022-05-24
_audit_creation_method            REPEAT_Assigner
_cell_length_a                    31.072100
_cell_length_b                    31.072100
_cell_length_c                    28.982800
_cell_angle_alpha                 90.000000
_cell_angle_beta                  90.000000
_cell_angle_gamma                 90.000000
_cell_volume                      27982.180377
_symmetry_space_group_name_H-M    P1
_symmetry_Int_Tables_number       1
loop_
    _symmetry_equiv_pos_site_id
    _symmetry_equiv_pos_as_xyz
    1  x,y,z
loop_
    _atom_site_type_symbol
    _atom_site_label
    _atom_site_fract_x
    _atom_site_fract_y
    _atom_site_fract_z
    _atom_type_partial_charge
    C   C1    0.065797  0.532178  0.043508  0.821443
    C   C2    0.065797  0.451013  0.956492  0.823540
    C   C3    0.951013  0.451013  0.956492  0.822714
    C   C4    0.951013  0.532178  0.043508  0.824890
    C   C5    0.065797  0.951013  0.043508  0.597067
    C   C6    0.897041  0.885781  0.059405  -0.388292
    C   C7    0.868845  0.863830  0.093739  0.277647
    C   C8    0.883023  0.867247  0.140124  0.221725
    C   C9    0.859119  0.848529  0.175507  -0.263250
    C   C10   0.823448  0.821179  0.165863  -0.129726
    C   C11   0.810567  0.817159  0.118425  -0.002841
    C   C12   0.831929  0.837810  0.083874  -0.321585
    C   C13   0.922110  0.888497  0.153201  -0.239000
    C   C14   0.945269  0.911880  0.121437  -0.104115
    C   C15   0.930495  0.914629  0.075429  0.012598
    C   C16   0.907159  0.909749  0.931567  0.046701
    C   C17   0.926575  0.880833  0.969429  -0.252132
    C   C18   0.934582  0.840013  0.943254  -0.129259
    C   C19   0.914285  0.840769  0.896992  0.450873
    C   C20   0.890368  0.874783  0.002992  0.679076
    C   C21   0.890589  0.903099  0.846003  -0.012629
    C   C22   0.856374  0.935183  0.852115  -0.041509
    C   C23   0.860671  0.978050  0.848214  -0.395972
    C   C24   0.619768  0.097409  0.559405  -0.387759
    C   C25   0.647965  0.119360  0.593739  0.277452
    C   C26   0.633787  0.115943  0.640124  0.217071
    C   C27   0.657691  0.134661  0.675507  -0.258427
    C   C28   0.693362  0.162011  0.665863  -0.132657
    C   C29   0.706243  0.166031  0.618425  -0.002152
    C   C30   0.684881  0.145380  0.583874  -0.320537
    C   C31   0.594700  0.094693  0.653201  -0.236784
    C   C32   0.571541  0.071310  0.621437  -0.105356
    C   C33   0.586315  0.068561  0.575429  0.017084
    C   C34   0.565797  0.032178  0.543508  0.590323
    C   C35   0.609651  0.073441  0.431567  0.051329
    C   C36   0.590235  0.102357  0.469429  -0.254090
    C   C37   0.582227  0.143177  0.443254  -0.119615
    C   C38   0.602525  0.142421  0.396992  0.446473
    C   C39   0.626442  0.108407  0.502992  0.678137
    C   C40   0.626221  0.080091  0.346003  -0.012732
    C   C41   0.660436  0.048007  0.352115  -0.046060
    C   C42   0.656139  0.005140  0.348214  -0.391410
    C   C43   0.364219  0.630232  0.309405  -0.399459
    C   C44   0.386170  0.602035  0.343739  0.238294
    C   C45   0.382753  0.616213  0.390124  0.280285
    C   C46   0.401471  0.592309  0.425507  -0.332866
    C   C47   0.428821  0.556638  0.415863  -0.033123
    C   C48   0.432841  0.543757  0.368425  -0.066719
    C   C49   0.565797  0.951013  0.456492  0.597073
    C   C50   0.412190  0.565119  0.333874  -0.285191
    C   C51   0.361503  0.655300  0.403201  -0.244117
    C   C52   0.338120  0.678459  0.371437  -0.122360
    C   C53   0.335371  0.663685  0.325429  0.048933
    C   C54   0.951013  0.951013  0.043508  0.597783
    C   C55   0.340251  0.640349  0.181567  0.033092
    C   C56   0.369167  0.659765  0.219429  -0.274081
    C   C57   0.409987  0.667773  0.193254  -0.087406
    C   C58   0.409231  0.647475  0.146992  0.405582
    C   C59   0.375217  0.623558  0.252992  0.683282
    C   C60   0.346901  0.623779  0.096003  -0.060983
    C   C61   0.314817  0.589564  0.102115  0.000485
    C   C62   0.271950  0.593861  0.098214  -0.411584
    C   C63   0.451013  0.951013  0.456492  0.597777
    C   C64   0.152591  0.352959  0.809405  -0.400300
    C   C65   0.130640  0.381155  0.843739  0.238891
    C   C66   0.134057  0.366977  0.890124  0.281022
    C   C67   0.115339  0.390881  0.925507  -0.332637
    C   C68   0.087989  0.426552  0.915863  -0.033019
    C   C69   0.083969  0.439433  0.868425  -0.064853
    C   C70   0.104620  0.418071  0.833874  -0.287584
    C   C71   0.155307  0.327890  0.903201  -0.244967
    C   C72   0.178690  0.304731  0.871437  -0.124123
    C   C73   0.181439  0.319505  0.825429  0.052318
    C   C74   0.176559  0.342841  0.681567  0.028822
    C   C75   0.147643  0.323425  0.719429  -0.279901
    C   C76   0.106823  0.315418  0.693254  -0.076209
    C   C77   0.107579  0.335715  0.646992  0.400901
    C   C78   0.141593  0.359632  0.752992  0.686416
    C   C79   0.169909  0.359411  0.596003  -0.061917
    C   C80   0.201993  0.393626  0.602115  0.000108
    C   C81   0.244860  0.389329  0.598214  -0.410763
    C   C82   0.451013  0.032178  0.543508  0.591861
    C   C83   0.619768  0.885781  0.440595  -0.391998
    C   C84   0.647965  0.863830  0.406261  0.281867
    C   C85   0.633787  0.867247  0.359876  0.216984
    C   C86   0.657691  0.848529  0.324493  -0.260642
    C   C87   0.693362  0.821179  0.334137  -0.134535
    C   C88   0.706243  0.817159  0.381575  -0.001092
    C   C89   0.684881  0.837810  0.416126  -0.321853
    C   C90   0.594700  0.888497  0.346799  -0.235591
    C   C91   0.571541  0.911880  0.378563  -0.107492
    C   C92   0.586315  0.914629  0.424571  0.016053
    C   C93   0.609651  0.909749  0.568433  0.053315
    C   C94   0.590235  0.880833  0.530571  -0.252915
    C   C95   0.582227  0.840013  0.556746  -0.126159
    C   C96   0.602525  0.840769  0.603008  0.449858
    C   C97   0.626442  0.874783  0.497008  0.678203
    C   C98   0.626221  0.903099  0.653997  -0.011575
    C   C99   0.660436  0.935183  0.647885  -0.044399
    C   C100  0.656139  0.978050  0.651786  -0.394238
    C   C101  0.897041  0.097409  0.940595  -0.393894
    C   C102  0.868845  0.119360  0.906261  0.282607
    C   C103  0.883023  0.115943  0.859876  0.218061
    C   C104  0.859119  0.134661  0.824493  -0.260840
    C   C105  0.823448  0.162011  0.834137  -0.134310
    C   C106  0.810567  0.166031  0.881575  0.000390
    C   C107  0.831929  0.145380  0.916126  -0.323887
    C   C108  0.922110  0.094693  0.846799  -0.235973
    C   C109  0.298987  0.684203  0.293508  0.569494
    C   C110  0.945269  0.071310  0.878563  -0.110228
    C   C111  0.930495  0.068561  0.924571  0.020183
    C   C112  0.907159  0.073441  0.068433  0.050315
    C   C113  0.926575  0.102357  0.030571  -0.257967
    C   C114  0.934582  0.143177  0.056746  -0.118476
    C   C115  0.914285  0.142421  0.103008  0.446579
    C   C116  0.890368  0.108407  0.997008  0.681912
    C   C117  0.890589  0.080091  0.153997  -0.012969
    C   C118  0.856374  0.048007  0.147885  -0.044375
    C   C119  0.860671  0.005140  0.151786  -0.393759
    C   C120  0.152591  0.630232  0.190595  -0.393674
    C   C121  0.130640  0.602035  0.156261  0.233378
    C   C122  0.217822  0.684203  0.206492  0.561080
    C   C123  0.134057  0.616213  0.109876  0.280408
    C   C124  0.115339  0.592309  0.074493  -0.330084
    C   C125  0.087989  0.556638  0.084137  -0.031999
    C   C126  0.083969  0.543757  0.131575  -0.067216
    C   C127  0.104620  0.565119  0.166126  -0.284208
    C   C128  0.155307  0.655300  0.096799  -0.245489
    C   C129  0.178690  0.678459  0.128563  -0.120522
    C   C130  0.181439  0.663685  0.174571  0.049398
    C   C131  0.176559  0.640349  0.318433  0.029179
    C   C132  0.147643  0.659765  0.280571  -0.275244
    C   C133  0.106823  0.667773  0.306746  -0.078708
    C   C134  0.107579  0.647475  0.353008  0.401513
    C   C135  0.141593  0.623558  0.247008  0.682451
    C   C136  0.169909  0.623779  0.403997  -0.061694
    C   C137  0.201993  0.589564  0.397885  -0.001423
    C   C138  0.244860  0.593861  0.401786  -0.408736
    C   C139  0.217822  0.798987  0.206492  0.846731
    C   C140  0.364219  0.352959  0.690595  -0.395835
    C   C141  0.386170  0.381155  0.656261  0.234335
    C   C142  0.382753  0.366977  0.609876  0.285139
    C   C143  0.401471  0.390881  0.574493  -0.335447
    C   C144  0.428821  0.426552  0.584137  -0.029201
    C   C145  0.432841  0.439433  0.631575  -0.067726
    C   C146  0.412190  0.418071  0.666126  -0.285335
    C   C147  0.361503  0.327890  0.596799  -0.247797
    C   C148  0.338120  0.304731  0.628563  -0.119588
    C   C149  0.335371  0.319505  0.674571  0.045969
    C   C150  0.340251  0.342841  0.818433  0.025999
    C   C151  0.369167  0.323425  0.780571  -0.273836
    C   C152  0.409987  0.315418  0.806746  -0.088449
    C   C153  0.409231  0.335715  0.853008  0.405661
    C   C154  0.375217  0.359632  0.747008  0.684134
    C   C155  0.346901  0.359411  0.903997  -0.061420
    C   C156  0.314817  0.393626  0.897885  0.002865
    C   C157  0.271950  0.389329  0.901786  -0.413064
    C   C158  0.298987  0.798987  0.293508  0.843659
    C   C159  0.119768  0.097409  0.940595  -0.387710
    C   C160  0.147965  0.119360  0.906261  0.277369
    C   C161  0.133787  0.115943  0.859876  0.217211
    C   C162  0.157691  0.134661  0.824493  -0.258472
    C   C163  0.193362  0.162011  0.834137  -0.132683
    C   C164  0.206243  0.166031  0.881575  -0.002176
    C   C165  0.184881  0.145380  0.916126  -0.320485
    C   C166  0.094700  0.094693  0.846799  -0.236960
    C   C167  0.071541  0.071310  0.878563  -0.105268
    C   C168  0.086315  0.068561  0.924571  0.017048
    C   C169  0.109651  0.073441  0.068433  0.051350
    C   C170  0.090235  0.102357  0.030571  -0.254119
    C   C171  0.082227  0.143177  0.056746  -0.119599
    C   C172  0.102525  0.142421  0.103008  0.446465
    C   C173  0.126442  0.108407  0.997008  0.678147
    C   C174  0.126221  0.080091  0.153997  -0.012712
    C   C175  0.160436  0.048007  0.147885  -0.046070
    C   C176  0.156139  0.005140  0.151786  -0.391407
    C   C177  0.397041  0.885781  0.440595  -0.388256
    C   C178  0.368845  0.863830  0.406261  0.277622
    C   C179  0.383023  0.867247  0.359876  0.221719
    C   C180  0.359119  0.848529  0.324493  -0.263270
    C   C181  0.217822  0.298987  0.793508  0.563358
    C   C182  0.323448  0.821179  0.334137  -0.129685
    C   C183  0.310567  0.817159  0.381575  -0.002893
    C   C184  0.331929  0.837810  0.416126  -0.321500
    C   C185  0.422110  0.888497  0.346799  -0.238992
    C   C186  0.445269  0.911880  0.378563  -0.104124
    C   C187  0.430495  0.914629  0.424571  0.012589
    C   C188  0.407159  0.909749  0.568433  0.046604
    C   C189  0.426575  0.880833  0.530571  -0.252006
    C   C190  0.434582  0.840013  0.556746  -0.129349
    C   C191  0.414285  0.840769  0.603008  0.450846
    C   C192  0.390368  0.874783  0.497008  0.678963
    C   C193  0.390589  0.903099  0.653997  -0.012633
    C   C194  0.356374  0.935183  0.647885  -0.041526
    C   C195  0.360671  0.978050  0.651786  -0.395955
    C   C196  0.298987  0.298987  0.706492  0.569655
    C   C197  0.652591  0.352959  0.690595  -0.400520
    C   C198  0.630640  0.381155  0.656261  0.239035
    C   C199  0.634057  0.366977  0.609876  0.281089
    C   C200  0.615339  0.390881  0.574493  -0.332655
    C   C201  0.587989  0.426552  0.584137  -0.033114
    C   C202  0.583969  0.439433  0.631575  -0.064647
    C   C203  0.604620  0.418071  0.666126  -0.287859
    C   C204  0.655307  0.327890  0.596799  -0.245038
    C   C205  0.678690  0.304731  0.628563  -0.124046
    C   C206  0.681439  0.319505  0.674571  0.052336
    C   C207  0.676559  0.342841  0.818433  0.028759
    C   C208  0.647643  0.323425  0.780571  -0.279932
    C   C209  0.606823  0.315418  0.806746  -0.076270
    C   C210  0.607579  0.335715  0.853008  0.400886
    C   C211  0.641593  0.359632  0.747008  0.686634
    C   C212  0.669909  0.359411  0.903997  -0.061903
    C   C213  0.701993  0.393626  0.897885  0.000075
    C   C214  0.744860  0.389329  0.901786  -0.410691
    C   C215  0.951013  0.032178  0.956492  0.591885
    C   C216  0.298987  0.184203  0.706492  0.845620
    C   C217  0.864219  0.630232  0.190595  -0.399449
    C   C218  0.886170  0.602035  0.156261  0.238279
    C   C219  0.882753  0.616213  0.109876  0.280298
    C   C220  0.901471  0.592309  0.074493  -0.332881
    C   C221  0.928821  0.556638  0.084137  -0.033104
    C   C222  0.932841  0.543757  0.131575  -0.066729
    C   C223  0.912190  0.565119  0.166126  -0.285180
    C   C224  0.861503  0.655300  0.096799  -0.244128
    C   C225  0.838120  0.678459  0.128563  -0.122341
    C   C226  0.835371  0.663685  0.174571  0.048920
    C   C227  0.840251  0.640349  0.318433  0.033074
    C   C228  0.869167  0.659765  0.280571  -0.274060
    C   C229  0.909987  0.667773  0.306746  -0.087406
    C   C230  0.909231  0.647475  0.353008  0.405565
    C   C231  0.875217  0.623558  0.247008  0.683272
    C   C232  0.217822  0.184203  0.793508  0.843532
    C   C233  0.846901  0.623779  0.403997  -0.060982
    C   C234  0.814817  0.589564  0.397885  0.000506
    C   C235  0.771950  0.593861  0.401786  -0.411595
    C   C236  0.397041  0.097409  0.559405  -0.393834
    C   C237  0.368845  0.119360  0.593739  0.282495
    C   C238  0.383023  0.115943  0.640124  0.218115
    C   C239  0.359119  0.134661  0.675507  -0.260950
    C   C240  0.323448  0.162011  0.665863  -0.133975
    C   C241  0.310567  0.166031  0.618425  0.000149
    C   C242  0.331929  0.145380  0.583874  -0.323777
    C   C243  0.422110  0.094693  0.653201  -0.235980
    C   C244  0.445269  0.071310  0.621437  -0.110230
    C   C245  0.430495  0.068561  0.575429  0.020178
    C   C246  0.407159  0.073441  0.431567  0.050311
    C   C247  0.426575  0.102357  0.469429  -0.257928
    C   C248  0.434582  0.143177  0.443254  -0.118486
    C   C249  0.414285  0.142421  0.396992  0.446588
    C   C250  0.390368  0.108407  0.502992  0.681851
    C   C251  0.390589  0.080091  0.346003  -0.012984
    C   C252  0.356374  0.048007  0.352115  -0.044368
    C   C253  0.360671  0.005140  0.348214  -0.393766
    C   C254  0.717822  0.298987  0.706492  0.563364
    C   C255  0.119768  0.885781  0.059405  -0.392009
    C   C256  0.147965  0.863830  0.093739  0.281883
    C   C257  0.133787  0.867247  0.140124  0.216969
    C   C258  0.157691  0.848529  0.175507  -0.260636
    C   C259  0.193362  0.821179  0.165863  -0.134534
    C   C260  0.206243  0.817159  0.118425  -0.001090
    C   C261  0.184881  0.837810  0.083874  -0.321866
    C   C262  0.094700  0.888497  0.153201  -0.235578
    C   C263  0.071541  0.911880  0.121437  -0.107496
    C   C264  0.086315  0.914629  0.075429  0.016055
    C   C265  0.109651  0.909749  0.931567  0.053341
    C   C266  0.090235  0.880833  0.969429  -0.252995
    C   C267  0.082227  0.840013  0.943254  -0.126098
    C   C268  0.102525  0.840769  0.896992  0.449875
    C   C269  0.126442  0.874783  0.002992  0.678250
    C   C270  0.126221  0.903099  0.846003  -0.011563
    C   C271  0.160436  0.935183  0.852115  -0.044405
    C   C272  0.156139  0.978050  0.848214  -0.394235
    C   C273  0.798987  0.298987  0.793508  0.569534
    C   C274  0.864219  0.352959  0.809405  -0.395745
    C   C275  0.886170  0.381155  0.843739  0.234233
    C   C276  0.882753  0.366977  0.890124  0.285316
    C   C277  0.901471  0.390881  0.925507  -0.335491
    C   C278  0.928821  0.426552  0.915863  -0.029199
    C   C279  0.932841  0.439433  0.868425  -0.067720
    C   C280  0.912190  0.418071  0.833874  -0.285340
    C   C281  0.861503  0.327890  0.903201  -0.247952
    C   C282  0.838120  0.304731  0.871437  -0.119691
    C   C283  0.835371  0.319505  0.825429  0.046027
    C   C284  0.840251  0.342841  0.681567  0.025965
    C   C285  0.869167  0.323425  0.719429  -0.273839
    C   C286  0.909987  0.315418  0.693254  -0.088395
    C   C287  0.909231  0.335715  0.646992  0.405663
    C   C288  0.875217  0.359632  0.752992  0.684079
    C   C289  0.846901  0.359411  0.596003  -0.061430
    C   C290  0.798987  0.184203  0.793508  0.845849
    C   C291  0.814817  0.393626  0.602115  0.002878
    C   C292  0.771950  0.389329  0.598214  -0.413052
    C   C293  0.652591  0.630232  0.309405  -0.393723
    C   C294  0.630640  0.602035  0.343739  0.233456
    C   C295  0.634057  0.616213  0.390124  0.280280
    C   C296  0.615339  0.592309  0.425507  -0.330033
    C   C297  0.587989  0.556638  0.415863  -0.032020
    C   C298  0.583969  0.543757  0.368425  -0.067185
    C   C299  0.604620  0.565119  0.333874  -0.284246
    C   C300  0.655307  0.655300  0.403201  -0.245330
    C   C301  0.678690  0.678459  0.371437  -0.120595
    C   C302  0.681439  0.663685  0.325429  0.049429
    C   C303  0.676559  0.640349  0.181567  0.029192
    C   C304  0.647643  0.659765  0.219429  -0.275271
    C   C305  0.717822  0.184203  0.706492  0.843440
    C   C306  0.606823  0.667773  0.193254  -0.078707
    C   C307  0.607579  0.647475  0.146992  0.401530
    C   C308  0.641593  0.623558  0.252992  0.682480
    C   C309  0.669909  0.623779  0.096003  -0.061690
    C   C310  0.701993  0.589564  0.102115  -0.001438
    C   C311  0.744860  0.593861  0.098214  -0.408725
    C   C312  0.798987  0.684203  0.206492  0.569506
    C   C313  0.717822  0.684203  0.293508  0.561079
    C   C314  0.717822  0.798987  0.293508  0.846734
    C   C315  0.065797  0.032178  0.956492  0.590327
    C   C316  0.798987  0.798987  0.206492  0.843685
    C   C317  0.451013  0.451013  0.543508  0.822688
    C   C318  0.451013  0.532178  0.456492  0.824887
    C   C319  0.565797  0.532178  0.456492  0.821429
    C   C320  0.565797  0.451013  0.543508  0.823595
    Cu  Cu1   0.008405  0.961382  0.967609  0.825676
    Cu  Cu2   0.008405  0.021808  0.032391  0.826947
    Cu  Cu3   0.508405  0.021808  0.467609  0.826931
    Cu  Cu4   0.508405  0.961382  0.532391  0.825623
    Cu  Cu5   0.288618  0.741595  0.217609  0.930026
    Cu  Cu6   0.228192  0.741595  0.282391  0.931955
    Cu  Cu7   0.228192  0.241595  0.717609  0.932248
    Cu  Cu8   0.288618  0.241595  0.782391  0.931565
    Cu  Cu9   0.728192  0.241595  0.782391  0.932221
    Cu  Cu10  0.788618  0.241595  0.717609  0.931570
    Cu  Cu11  0.788618  0.741595  0.282391  0.930017
    Cu  Cu12  0.728192  0.741595  0.217609  0.931972
    Cu  Cu13  0.508405  0.461382  0.467609  1.027531
    Cu  Cu14  0.508405  0.521808  0.532391  1.028565
    Cu  Cu15  0.008405  0.521808  0.967609  1.028599
    Cu  Cu16  0.008405  0.461382  0.032391  1.027562
    H   H1    0.868536  0.852679  0.210193  0.147431
    H   H2    0.782792  0.799145  0.106511  0.100509
    H   H3    0.817747  0.832530  0.049811  0.214759
    H   H4    0.935121  0.885759  0.189127  0.144823
    H   H5    0.972025  0.929820  0.130196  0.128677
    H   H6    0.878232  0.927582  0.943911  0.012951
    H   H7    0.931612  0.936170  0.920728  0.065346
    H   H8    0.954631  0.892734  0.987526  0.095579
    H   H9    0.929463  0.809129  0.961687  0.081352
    H   H10   0.970482  0.839328  0.938205  0.058914
    H   H11   0.878148  0.878148  0.822944  0.095979
    H   H12   0.921517  0.917108  0.833601  0.047719
    H   H13   0.823738  0.923150  0.855042  0.107116
    H   H14   0.831296  0.995729  0.844797  0.141157
    H   H15   0.891761  0.993469  0.838894  0.159204
    H   H16   0.648274  0.130512  0.710193  0.146529
    H   H17   0.734018  0.184046  0.606511  0.100353
    H   H18   0.699063  0.150660  0.549811  0.213965
    H   H19   0.581689  0.097432  0.689127  0.144444
    H   H20   0.544785  0.053370  0.630196  0.128227
    H   H21   0.638577  0.055609  0.443911  0.010851
    H   H22   0.585198  0.047021  0.420728  0.063432
    H   H23   0.562178  0.090456  0.487526  0.093708
    H   H24   0.587347  0.174061  0.461687  0.078667
    H   H25   0.546328  0.143862  0.438205  0.056711
    H   H26   0.638661  0.105042  0.322944  0.096463
    H   H27   0.595293  0.066083  0.333601  0.047922
    H   H28   0.693072  0.060040  0.355042  0.108430
    H   H29   0.685513  0.987461  0.344797  0.140392
    H   H30   0.625048  0.989721  0.338894  0.157749
    H   H31   0.397321  0.601726  0.460193  0.156044
    H   H32   0.450855  0.515982  0.356511  0.126892
    H   H33   0.417470  0.550937  0.299811  0.207540
    H   H34   0.364241  0.668311  0.439127  0.153377
    H   H35   0.320180  0.705215  0.380196  0.140216
    H   H36   0.322418  0.611423  0.193911  0.011816
    H   H37   0.313830  0.664802  0.170728  0.058369
    H   H38   0.357266  0.687822  0.237526  0.106948
    H   H39   0.440871  0.662653  0.211687  0.084473
    H   H40   0.410672  0.703672  0.188205  0.040295
    H   H41   0.371852  0.611339  0.072944  0.103213
    H   H42   0.332892  0.654707  0.083601  0.060781
    H   H43   0.326850  0.556928  0.105042  0.099023
    H   H44   0.254271  0.564487  0.094797  0.141773
    H   H45   0.256531  0.624952  0.088894  0.162906
    H   H46   0.119488  0.381464  0.960193  0.155969
    H   H47   0.065954  0.467208  0.856511  0.126071
    H   H48   0.099340  0.432253  0.799811  0.208144
    H   H49   0.152568  0.314879  0.939127  0.153874
    H   H50   0.196630  0.277975  0.880196  0.140652
    H   H51   0.194391  0.371768  0.693911  0.012788
    H   H52   0.202979  0.318388  0.670728  0.059696
    H   H53   0.159544  0.295369  0.737526  0.105046
    H   H54   0.075939  0.320537  0.711687  0.081626
    H   H55   0.106138  0.279518  0.688205  0.038226
    H   H56   0.144958  0.371852  0.572944  0.103814
    H   H57   0.183917  0.328483  0.583601  0.060568
    H   H58   0.189960  0.426262  0.605042  0.098956
    H   H59   0.262539  0.418704  0.594797  0.141364
    H   H60   0.260279  0.358239  0.588894  0.163076
    H   H61   0.648274  0.852679  0.289807  0.147273
    H   H62   0.734018  0.799145  0.393489  0.100528
    H   H63   0.699063  0.832530  0.450189  0.214504
    H   H64   0.581689  0.885759  0.310873  0.144128
    H   H65   0.544785  0.929820  0.369804  0.130295
    H   H66   0.638577  0.927582  0.556089  0.011163
    H   H67   0.585198  0.936170  0.579272  0.062954
    H   H68   0.562178  0.892734  0.512474  0.096535
    H   H69   0.587347  0.809129  0.538313  0.080762
    H   H70   0.546328  0.839328  0.561795  0.057322
    H   H71   0.638661  0.878148  0.677056  0.095592
    H   H72   0.595293  0.917108  0.666399  0.047847
    H   H73   0.693072  0.923150  0.644958  0.108046
    H   H74   0.685513  0.995729  0.655203  0.141044
    H   H75   0.625048  0.993469  0.661106  0.158719
    H   H76   0.868536  0.130512  0.789807  0.147151
    H   H77   0.782792  0.184046  0.893489  0.099774
    H   H78   0.817747  0.150660  0.950189  0.214933
    H   H79   0.935121  0.097432  0.810873  0.144561
    H   H80   0.972025  0.053370  0.869804  0.130907
    H   H81   0.878232  0.055609  0.056089  0.011723
    H   H82   0.931612  0.047021  0.079272  0.064501
    H   H83   0.954631  0.090456  0.012474  0.095448
    H   H84   0.929463  0.174061  0.038313  0.078802
    H   H85   0.970482  0.143862  0.061795  0.056217
    H   H86   0.878148  0.105042  0.177056  0.096310
    H   H87   0.921517  0.066083  0.166399  0.047790
    H   H88   0.823738  0.060040  0.144958  0.107991
    H   H89   0.831296  0.987461  0.155203  0.140748
    H   H90   0.891761  0.989721  0.161106  0.158993
    H   H91   0.119488  0.601726  0.039807  0.155221
    H   H92   0.065954  0.515982  0.143489  0.126654
    H   H93   0.099340  0.550937  0.200189  0.207090
    H   H94   0.152568  0.668311  0.060873  0.153668
    H   H95   0.196630  0.705215  0.119804  0.138872
    H   H96   0.194391  0.611423  0.306089  0.012062
    H   H97   0.202979  0.664802  0.329272  0.059179
    H   H98   0.159544  0.687822  0.262474  0.103228
    H   H99   0.075939  0.662653  0.288313  0.081849
    H   H100  0.106138  0.703672  0.311795  0.038810
    H   H101  0.144958  0.611339  0.427056  0.103993
    H   H102  0.183917  0.654707  0.416399  0.060672
    H   H103  0.189960  0.556928  0.394958  0.099385
    H   H104  0.262539  0.564487  0.405203  0.141110
    H   H105  0.260279  0.624952  0.411106  0.162072
    H   H106  0.397321  0.381464  0.539807  0.156526
    H   H107  0.450855  0.467208  0.643489  0.126896
    H   H108  0.417470  0.432253  0.700189  0.207800
    H   H109  0.364241  0.314879  0.560873  0.154000
    H   H110  0.320180  0.277975  0.619804  0.139688
    H   H111  0.322418  0.371768  0.806089  0.013771
    H   H112  0.313830  0.318388  0.829272  0.060447
    H   H113  0.357266  0.295369  0.762474  0.105763
    H   H114  0.440871  0.320537  0.788313  0.084605
    H   H115  0.410672  0.279518  0.811795  0.040991
    H   H116  0.371852  0.371852  0.927056  0.103444
    H   H117  0.332892  0.328483  0.916399  0.060544
    H   H118  0.326850  0.426262  0.894958  0.098138
    H   H119  0.254271  0.418704  0.905203  0.141854
    H   H120  0.256531  0.358239  0.911106  0.163291
    H   H121  0.148274  0.130512  0.789807  0.146531
    H   H122  0.234018  0.184046  0.893489  0.100360
    H   H123  0.199063  0.150660  0.950189  0.213950
    H   H124  0.081689  0.097432  0.810873  0.144514
    H   H125  0.044785  0.053370  0.869804  0.128201
    H   H126  0.138577  0.055609  0.056089  0.010844
    H   H127  0.085198  0.047021  0.079272  0.063427
    H   H128  0.062178  0.090456  0.012474  0.093719
    H   H129  0.087347  0.174061  0.038313  0.078663
    H   H130  0.046328  0.143862  0.061795  0.056708
    H   H131  0.138661  0.105042  0.177056  0.096458
    H   H132  0.095293  0.066083  0.166399  0.047917
    H   H133  0.193072  0.060040  0.144958  0.108432
    H   H134  0.185513  0.987461  0.155203  0.140392
    H   H135  0.125048  0.989721  0.161106  0.157748
    H   H136  0.368536  0.852679  0.289807  0.147437
    H   H137  0.282792  0.799145  0.393489  0.100517
    H   H138  0.317747  0.832530  0.450189  0.214685
    H   H139  0.435121  0.885759  0.310873  0.144823
    H   H140  0.472025  0.929820  0.369804  0.128681
    H   H141  0.378232  0.927582  0.556089  0.012969
    H   H142  0.431612  0.936170  0.579272  0.065366
    H   H143  0.454631  0.892734  0.512474  0.095553
    H   H144  0.429463  0.809129  0.538313  0.081368
    H   H145  0.470482  0.839328  0.561795  0.058942
    H   H146  0.378148  0.878148  0.677056  0.095980
    H   H147  0.421517  0.917108  0.666399  0.047716
    H   H148  0.323738  0.923150  0.644958  0.107119
    H   H149  0.331296  0.995729  0.655203  0.141155
    H   H150  0.391761  0.993469  0.661106  0.159202
    H   H151  0.619488  0.381464  0.539807  0.155979
    H   H152  0.565954  0.467208  0.643489  0.126034
    H   H153  0.599340  0.432253  0.700189  0.208221
    H   H154  0.652568  0.314879  0.560873  0.153885
    H   H155  0.696630  0.277975  0.619804  0.140629
    H   H156  0.694391  0.371768  0.806089  0.012779
    H   H157  0.702979  0.318388  0.829272  0.059723
    H   H158  0.659544  0.295369  0.762474  0.105063
    H   H159  0.575939  0.320537  0.788313  0.081637
    H   H160  0.606138  0.279518  0.811795  0.038247
    H   H161  0.644958  0.371852  0.927056  0.103810
    H   H162  0.683917  0.328483  0.916399  0.060567
    H   H163  0.689960  0.426262  0.894958  0.098959
    H   H164  0.762539  0.418704  0.905203  0.141347
    H   H165  0.760279  0.358239  0.911106  0.163043
    H   H166  0.897321  0.601726  0.039807  0.156049
    H   H167  0.950855  0.515982  0.143489  0.126896
    H   H168  0.917470  0.550937  0.200189  0.207534
    H   H169  0.864241  0.668311  0.060873  0.153379
    H   H170  0.820180  0.705215  0.119804  0.140205
    H   H171  0.822418  0.611423  0.306089  0.011816
    H   H172  0.813830  0.664802  0.329272  0.058376
    H   H173  0.857266  0.687822  0.262474  0.106944
    H   H174  0.940871  0.662653  0.288313  0.084472
    H   H175  0.910672  0.703672  0.311795  0.040294
    H   H176  0.871852  0.611339  0.427056  0.103208
    H   H177  0.832892  0.654707  0.416399  0.060781
    H   H178  0.826850  0.556928  0.394958  0.099016
    H   H179  0.754271  0.564487  0.405203  0.141776
    H   H180  0.756531  0.624952  0.411106  0.162904
    H   H181  0.368536  0.130512  0.710193  0.147144
    H   H182  0.282792  0.184046  0.606511  0.099828
    H   H183  0.317747  0.150660  0.549811  0.214930
    H   H184  0.435121  0.097432  0.689127  0.144574
    H   H185  0.472025  0.053370  0.630196  0.130902
    H   H186  0.378232  0.055609  0.443911  0.011730
    H   H187  0.431612  0.047021  0.420728  0.064503
    H   H188  0.454631  0.090456  0.487526  0.095428
    H   H189  0.429463  0.174061  0.461687  0.078807
    H   H190  0.470482  0.143862  0.438205  0.056216
    H   H191  0.378148  0.105042  0.322944  0.096316
    H   H192  0.421517  0.066083  0.333601  0.047793
    H   H193  0.323738  0.060040  0.355042  0.107989
    H   H194  0.331296  0.987461  0.344797  0.140751
    H   H195  0.391761  0.989721  0.338894  0.158996
    H   H196  0.148274  0.852679  0.210193  0.147271
    H   H197  0.234018  0.799145  0.106511  0.100528
    H   H198  0.199063  0.832530  0.049811  0.214514
    H   H199  0.081689  0.885759  0.189127  0.144124
    H   H200  0.044785  0.929820  0.130196  0.130295
    H   H201  0.138577  0.927582  0.943911  0.011163
    H   H202  0.085198  0.936170  0.920728  0.062954
    H   H203  0.062178  0.892734  0.987526  0.096549
    H   H204  0.087347  0.809129  0.961687  0.080744
    H   H205  0.046328  0.839328  0.938205  0.057317
    H   H206  0.138661  0.878148  0.822944  0.095590
    H   H207  0.095293  0.917108  0.833601  0.047846
    H   H208  0.193072  0.923150  0.855042  0.108049
    H   H209  0.185513  0.995729  0.844797  0.141042
    H   H210  0.125048  0.993469  0.838894  0.158722
    H   H211  0.897321  0.381464  0.960193  0.156521
    H   H212  0.950855  0.467208  0.856511  0.126894
    H   H213  0.917470  0.432253  0.799811  0.207812
    H   H214  0.864241  0.314879  0.939127  0.154064
    H   H215  0.820180  0.277975  0.880196  0.139757
    H   H216  0.822418  0.371768  0.693911  0.013792
    H   H217  0.813830  0.318388  0.670728  0.060457
    H   H218  0.857266  0.295369  0.737526  0.105740
    H   H219  0.940871  0.320537  0.711687  0.084595
    H   H220  0.910672  0.279518  0.688205  0.040979
    H   H221  0.871852  0.371852  0.572944  0.103445
    H   H222  0.832892  0.328483  0.583601  0.060550
    H   H223  0.826850  0.426262  0.605042  0.098134
    H   H224  0.754271  0.418704  0.594797  0.141852
    H   H225  0.756531  0.358239  0.588894  0.163280
    H   H226  0.619488  0.601726  0.460193  0.155218
    H   H227  0.565954  0.515982  0.356511  0.126648
    H   H228  0.599340  0.550937  0.299811  0.207100
    H   H229  0.652568  0.668311  0.439127  0.153605
    H   H230  0.696630  0.705215  0.380196  0.138891
    H   H231  0.694391  0.611423  0.193911  0.012061
    H   H232  0.702979  0.664802  0.170728  0.059173
    H   H233  0.659544  0.687822  0.237526  0.103236
    H   H234  0.575939  0.662653  0.211687  0.081850
    H   H235  0.606138  0.703672  0.188205  0.038810
    H   H236  0.644958  0.611339  0.072944  0.103996
    H   H237  0.683917  0.654707  0.083601  0.060670
    H   H238  0.689960  0.556928  0.105042  0.099388
    H   H239  0.762539  0.564487  0.094797  0.141107
    H   H240  0.760279  0.624952  0.088894  0.162070
    N   N1    0.900898  0.885315  0.891035  -0.145506
    N   N2    0.615912  0.097875  0.391035  -0.144778
    N   N3    0.364685  0.634088  0.141035  -0.097397
    N   N4    0.152125  0.349102  0.641035  -0.093686
    N   N5    0.615912  0.885315  0.608965  -0.146902
    N   N6    0.900898  0.097875  0.108965  -0.144373
    N   N7    0.152125  0.634088  0.358965  -0.094351
    N   N8    0.364685  0.349102  0.858965  -0.095323
    N   N9    0.115912  0.097875  0.108965  -0.144784
    N   N10   0.400898  0.885315  0.608965  -0.145453
    N   N11   0.652125  0.349102  0.858965  -0.093643
    N   N12   0.864685  0.634088  0.358965  -0.097390
    N   N13   0.400898  0.097875  0.391035  -0.144373
    N   N14   0.115912  0.885315  0.891035  -0.146936
    N   N15   0.864685  0.349102  0.641035  -0.095333
    N   N16   0.652125  0.634088  0.141035  -0.094358
    O   O1    0.051915  0.998318  0.941238  -0.560757
    O   O2    0.051915  0.498318  0.058762  -0.640906
    O   O3    0.051915  0.546406  0.007207  -0.646248
    O   O4    0.051915  0.436785  0.992793  -0.646467
    O   O5    0.051915  0.484872  0.941238  -0.641815
    O   O6    0.964894  0.436785  0.992793  -0.646597
    O   O7    0.964894  0.484872  0.941238  -0.643059
    O   O8    0.964894  0.498318  0.058762  -0.642520
    O   O9    0.964894  0.546406  0.007207  -0.646203
    O   O10   0.051915  0.984872  0.058762  -0.563537
    O   O11   0.051915  0.936785  0.007207  -0.430186
    O   O12   0.914412  0.809896  0.869994  -0.506071
    O   O13   0.858611  0.854535  0.994130  -0.496164
    O   O14   0.602398  0.173294  0.369994  -0.505287
    O   O15   0.551915  0.998318  0.558762  -0.560749
    O   O16   0.658198  0.128655  0.494130  -0.495627
    O   O17   0.551915  0.046406  0.507207  -0.425329
    O   O18   0.551915  0.936785  0.492793  -0.430185
    O   O19   0.440104  0.647602  0.119994  -0.468653
    O   O20   0.395465  0.591802  0.244130  -0.485044
    O   O21   0.551915  0.984872  0.441238  -0.563542
    O   O22   0.464894  0.936785  0.492793  -0.428971
    O   O23   0.464894  0.984872  0.441238  -0.564886
    O   O24   0.076706  0.335588  0.619994  -0.468208
    O   O25   0.121345  0.391389  0.744130  -0.485397
    O   O26   0.464894  0.998318  0.558762  -0.562679
    O   O27   0.464894  0.046406  0.507207  -0.426237
    O   O28   0.602398  0.809896  0.630006  -0.505740
    O   O29   0.658198  0.854535  0.505870  -0.496391
    O   O30   0.964894  0.984872  0.058762  -0.564889
    O   O31   0.265128  0.698085  0.308762  -0.560579
    O   O32   0.914412  0.173294  0.130006  -0.505465
    O   O33   0.858611  0.128655  0.005870  -0.496750
    O   O34   0.313215  0.698085  0.257207  -0.401014
    O   O35   0.203594  0.698085  0.242793  -0.393852
    O   O36   0.076706  0.647602  0.380006  -0.468241
    O   O37   0.251682  0.698085  0.191238  -0.556691
    O   O38   0.121345  0.591802  0.255870  -0.484189
    O   O39   0.203594  0.785106  0.242793  -0.664777
    O   O40   0.251682  0.785106  0.191238  -0.623356
    O   O41   0.440104  0.335588  0.880006  -0.468878
    O   O42   0.395465  0.391389  0.755870  -0.484840
    O   O43   0.964894  0.936785  0.007207  -0.429011
    O   O44   0.265128  0.785106  0.308762  -0.623480
    O   O45   0.313215  0.785106  0.257207  -0.664149
    O   O46   0.102398  0.173294  0.130006  -0.505283
    O   O47   0.158198  0.128655  0.005870  -0.495633
    O   O48   0.251682  0.285106  0.808762  -0.559073
    O   O49   0.414412  0.809896  0.630006  -0.506055
    O   O50   0.358611  0.854535  0.505870  -0.496078
    O   O51   0.203594  0.285106  0.757207  -0.394880
    O   O52   0.313215  0.285106  0.742793  -0.399424
    O   O53   0.265128  0.285106  0.691238  -0.561776
    O   O54   0.576706  0.335588  0.880006  -0.468200
    O   O55   0.621345  0.391389  0.755870  -0.485443
    O   O56   0.313215  0.198085  0.742793  -0.664982
    O   O57   0.265128  0.198085  0.691238  -0.622828
    O   O58   0.940104  0.647602  0.380006  -0.468642
    O   O59   0.895465  0.591802  0.255870  -0.485037
    O   O60   0.251682  0.198085  0.808762  -0.622412
    O   O61   0.203594  0.198085  0.757207  -0.664939
    O   O62   0.414412  0.173294  0.369994  -0.505469
    O   O63   0.358611  0.128655  0.494130  -0.496734
    O   O64   0.751682  0.285106  0.691238  -0.559085
    O   O65   0.964894  0.046406  0.992793  -0.426266
    O   O66   0.703594  0.285106  0.742793  -0.394869
    O   O67   0.102398  0.809896  0.869994  -0.505752
    O   O68   0.158198  0.854535  0.994130  -0.496416
    O   O69   0.813215  0.285106  0.757207  -0.399328
    O   O70   0.765128  0.285106  0.808762  -0.561749
    O   O71   0.940104  0.335588  0.619994  -0.468882
    O   O72   0.895465  0.391389  0.744130  -0.484829
    O   O73   0.813215  0.198085  0.757207  -0.665060
    O   O74   0.765128  0.198085  0.808762  -0.622860
    O   O75   0.576706  0.647602  0.119994  -0.468252
    O   O76   0.621345  0.591802  0.244130  -0.484201
    O   O77   0.751682  0.198085  0.691238  -0.622387
    O   O78   0.703594  0.198085  0.742793  -0.664910
    O   O79   0.964894  0.998318  0.941238  -0.562700
    O   O80   0.765128  0.698085  0.191238  -0.560580
    O   O81   0.813215  0.698085  0.242793  -0.401021
    O   O82   0.703594  0.698085  0.257207  -0.393856
    O   O83   0.751682  0.698085  0.308762  -0.556692
    O   O84   0.703594  0.785106  0.257207  -0.664782
    O   O85   0.751682  0.785106  0.308762  -0.623354
    O   O86   0.765128  0.785106  0.191238  -0.623504
    O   O87   0.813215  0.785106  0.242793  -0.664147
    O   O88   0.464894  0.484872  0.558762  -0.643032
    O   O89   0.464894  0.436785  0.507207  -0.646581
    O   O90   0.051915  0.046406  0.992793  -0.425340
    O   O91   0.464894  0.546406  0.492793  -0.646184
    O   O92   0.464894  0.498318  0.441238  -0.642497
    O   O93   0.551915  0.546406  0.492793  -0.646234
    O   O94   0.551915  0.498318  0.441238  -0.640901
    O   O95   0.551915  0.484872  0.558762  -0.641840
    O   O96   0.551915  0.436785  0.507207  -0.646471
