# Generated by REPEAT Assigner based on pymatgen
data_DB13-pcu-Syn028654
_audit_creation_date              2022-05-24
_audit_creation_method            REPEAT_Assigner
_cell_length_a                    34.385000
_cell_length_b                    34.385000
_cell_length_c                    34.385000
_cell_angle_alpha                 90.000000
_cell_angle_beta                  90.000000
_cell_angle_gamma                 90.000000
_cell_volume                      40654.356017
_symmetry_space_group_name_H-M    P1
_symmetry_Int_Tables_number       1
loop_
    _symmetry_equiv_pos_site_id
    _symmetry_equiv_pos_as_xyz
    1  x,y,z
loop_
    _atom_site_type_symbol
    _atom_site_label
    _atom_site_fract_x
    _atom_site_fract_y
    _atom_site_fract_z
    _atom_type_partial_charge
    C   C1    0.250000  0.149459  0.750000  0.786160
    C   C2    0.149459  0.250000  0.750000  0.755443
    C   C3    0.350541  0.250000  0.750000  0.783402
    C   C4    0.250000  0.350541  0.750000  0.788366
    C   C5    0.250000  0.149459  0.250000  0.854046
    C   C6    0.250000  0.250000  0.850541  0.838428
    C   C7    0.750000  0.750000  0.649459  0.823535
    C   C8    0.750000  0.850541  0.750000  0.786002
    C   C9    0.850541  0.750000  0.750000  0.755449
    C   C10   0.649459  0.750000  0.750000  0.783472
    C   C11   0.750000  0.649459  0.750000  0.788354
    C   C12   0.750000  0.750000  0.850541  0.838471
    C   C13   0.250000  0.350541  0.250000  0.861967
    C   C14   0.250000  0.750000  0.350541  0.823494
    C   C15   0.250000  0.850541  0.250000  0.785911
    C   C16   0.149459  0.750000  0.250000  0.755430
    C   C17   0.350541  0.750000  0.250000  0.783458
    C   C18   0.250000  0.649459  0.250000  0.788443
    C   C19   0.250000  0.750000  0.149459  0.838509
    C   C20   0.750000  0.250000  0.350541  0.823501
    C   C21   0.750000  0.149459  0.250000  0.786077
    C   C22   0.350541  0.250000  0.250000  0.860277
    C   C23   0.850541  0.250000  0.250000  0.755440
    C   C24   0.649459  0.250000  0.250000  0.783374
    C   C25   0.750000  0.350541  0.250000  0.788454
    C   C26   0.750000  0.250000  0.149459  0.838473
    C   C27   0.915714  0.189349  0.225058  0.055046
    C   C28   0.888824  0.162892  0.244871  -0.230023
    C   C29   0.878660  0.125940  0.228206  0.170491
    C   C30   0.889250  0.115684  0.190574  -0.189051
    C   C31   0.915912  0.140683  0.171654  0.040891
    C   C32   0.930639  0.174474  0.188831  -0.066046
    C   C33   0.923328  0.227855  0.239890  0.018221
    C   C34   0.895156  0.252857  0.254023  -0.197431
    C   C35   0.960407  0.247977  0.245873  0.335746
    C   C36   0.250000  0.250000  0.149459  0.868185
    C   C37   0.003483  0.231351  0.235395  0.252556
    C   C38   0.084229  0.291023  0.259810  0.064650
    C   C39   0.104927  0.258611  0.246296  -0.101810
    C   C40   0.075101  0.235212  0.232498  -0.252588
    C   C41   0.900965  0.310074  0.297786  -0.354204
    C   C42   0.084286  0.810651  0.225058  0.055095
    C   C43   0.111176  0.837108  0.244871  -0.230059
    C   C44   0.121340  0.874060  0.228206  0.170549
    C   C45   0.110750  0.884316  0.190574  -0.189154
    C   C46   0.084088  0.859317  0.171654  0.040977
    C   C47   0.069361  0.825526  0.188831  -0.066104
    C   C48   0.076672  0.772145  0.239890  0.018193
    C   C49   0.104844  0.747143  0.254023  -0.197423
    C   C50   0.039593  0.752023  0.245873  0.335764
    C   C51   0.996517  0.768649  0.235395  0.252535
    C   C52   0.915771  0.708977  0.259810  0.064632
    C   C53   0.895073  0.741389  0.246296  -0.101795
    C   C54   0.924899  0.764788  0.232498  -0.252597
    C   C55   0.099035  0.689926  0.297786  -0.354223
    C   C56   0.084286  0.189349  0.774942  0.055032
    C   C57   0.111176  0.162892  0.755129  -0.230006
    C   C58   0.121340  0.125940  0.771794  0.170476
    C   C59   0.110750  0.115684  0.809426  -0.189039
    C   C60   0.084088  0.140683  0.828346  0.040888
    C   C61   0.069361  0.174474  0.811169  -0.066048
    C   C62   0.076672  0.227855  0.760110  0.018237
    C   C63   0.104844  0.252857  0.745977  -0.197448
    C   C64   0.039593  0.247977  0.754127  0.335746
    C   C65   0.996517  0.231351  0.764605  0.252548
    C   C66   0.915771  0.291023  0.740190  0.064640
    C   C67   0.895073  0.258611  0.753704  -0.101794
    C   C68   0.924899  0.235212  0.767502  -0.252599
    C   C69   0.099035  0.310074  0.702214  -0.354199
    C   C70   0.915714  0.810651  0.774942  0.055080
    C   C71   0.888824  0.837108  0.755129  -0.230039
    C   C72   0.878660  0.874060  0.771794  0.170532
    C   C73   0.889250  0.884316  0.809426  -0.189129
    C   C74   0.915912  0.859317  0.828346  0.040971
    C   C75   0.930639  0.825526  0.811169  -0.066110
    C   C76   0.750000  0.750000  0.350541  0.863073
    C   C77   0.923328  0.772145  0.760110  0.018188
    C   C78   0.895156  0.747143  0.745977  -0.197409
    C   C79   0.960407  0.752023  0.754127  0.335777
    C   C80   0.003483  0.768649  0.764605  0.252533
    C   C81   0.084229  0.708977  0.740190  0.064641
    C   C82   0.104927  0.741389  0.753704  -0.101805
    C   C83   0.075101  0.764788  0.767502  -0.252595
    C   C84   0.900965  0.689926  0.702214  -0.354190
    C   C85   0.225058  0.915714  0.189349  0.023137
    C   C86   0.244871  0.888824  0.162892  -0.169954
    C   C87   0.228206  0.878660  0.125940  0.097223
    C   C88   0.190574  0.889250  0.115684  -0.139500
    C   C89   0.171654  0.915912  0.140683  0.019029
    C   C90   0.188831  0.930639  0.174474  -0.045038
    C   C91   0.850541  0.750000  0.250000  0.865601
    C   C92   0.239890  0.923328  0.227855  0.022635
    C   C93   0.254023  0.895156  0.252857  -0.184753
    C   C94   0.245873  0.960407  0.247977  0.345313
    C   C95   0.235395  0.003483  0.231351  0.252834
    C   C96   0.259810  0.084229  0.291023  0.075796
    C   C97   0.246296  0.104927  0.258611  -0.088035
    C   C98   0.232498  0.075101  0.235212  -0.259769
    C   C99   0.297786  0.900965  0.310074  -0.403432
    C   C100  0.225058  0.084286  0.810651  0.023011
    C   C101  0.244871  0.111176  0.837108  -0.169965
    C   C102  0.228206  0.121340  0.874060  0.097606
    C   C103  0.190574  0.110750  0.884316  -0.140007
    C   C104  0.171654  0.084088  0.859317  0.019286
    C   C105  0.188831  0.069361  0.825526  -0.045090
    C   C106  0.750000  0.850541  0.250000  0.854056
    C   C107  0.239890  0.076672  0.772145  0.022809
    C   C108  0.254023  0.104844  0.747143  -0.185134
    C   C109  0.245873  0.039593  0.752023  0.345339
    C   C110  0.235395  0.996517  0.768649  0.252814
    C   C111  0.259810  0.915771  0.708977  0.075803
    C   C112  0.246296  0.895073  0.741389  -0.088034
    C   C113  0.232498  0.924899  0.764788  -0.259765
    C   C114  0.297786  0.099035  0.689926  -0.403431
    C   C115  0.774942  0.084286  0.189349  0.023001
    C   C116  0.755129  0.111176  0.162892  -0.169831
    C   C117  0.771794  0.121340  0.125940  0.097184
    C   C118  0.809426  0.110750  0.115684  -0.139498
    C   C119  0.828346  0.084088  0.140683  0.019011
    C   C120  0.811169  0.069361  0.174474  -0.044975
    C   C121  0.760110  0.076672  0.227855  0.022796
    C   C122  0.750000  0.649459  0.250000  0.861964
    C   C123  0.745977  0.104844  0.252857  -0.185049
    C   C124  0.754127  0.039593  0.247977  0.345311
    C   C125  0.764605  0.996517  0.231351  0.252822
    C   C126  0.740190  0.915771  0.291023  0.075805
    C   C127  0.753704  0.895073  0.258611  -0.088032
    C   C128  0.767502  0.924899  0.235212  -0.259768
    C   C129  0.702214  0.099035  0.310074  -0.403412
    C   C130  0.774942  0.915714  0.810651  0.023140
    C   C131  0.755129  0.888824  0.837108  -0.170076
    C   C132  0.771794  0.878660  0.874060  0.097624
    C   C133  0.809426  0.889250  0.884316  -0.139991
    C   C134  0.828346  0.915912  0.859317  0.019297
    C   C135  0.811169  0.930639  0.825526  -0.045150
    C   C136  0.760110  0.923328  0.772145  0.022641
    C   C137  0.745977  0.895156  0.747143  -0.184836
    C   C138  0.649459  0.750000  0.250000  0.860288
    C   C139  0.754127  0.960407  0.752023  0.345353
    C   C140  0.764605  0.003483  0.768649  0.252811
    C   C141  0.740190  0.084229  0.708977  0.075784
    C   C142  0.753704  0.104927  0.741389  -0.088027
    C   C143  0.767502  0.075101  0.764788  -0.259770
    C   C144  0.702214  0.900965  0.689926  -0.403475
    C   C145  0.189349  0.225058  0.915714  0.152592
    C   C146  0.162892  0.244871  0.888824  -0.289496
    C   C147  0.125940  0.228206  0.878660  0.182495
    C   C148  0.115684  0.190574  0.889250  -0.169739
    C   C149  0.140683  0.171654  0.915912  0.003313
    C   C150  0.174474  0.188831  0.930639  -0.050704
    C   C151  0.227855  0.239890  0.923328  -0.119366
    C   C152  0.252857  0.254023  0.895156  -0.175980
    C   C153  0.750000  0.750000  0.149459  0.868183
    C   C154  0.247977  0.245873  0.960407  0.343253
    C   C155  0.231351  0.235395  0.003483  0.268210
    C   C156  0.291023  0.259810  0.084229  0.072390
    C   C157  0.258611  0.246296  0.104927  -0.088360
    C   C158  0.235212  0.232498  0.075101  -0.252368
    C   C159  0.310074  0.297786  0.900965  -0.437553
    C   C160  0.810651  0.225058  0.084286  0.152604
    C   C161  0.837108  0.244871  0.111176  -0.289468
    C   C162  0.874060  0.228206  0.121340  0.182502
    C   C163  0.884316  0.190574  0.110750  -0.169773
    C   C164  0.859317  0.171654  0.084088  0.003380
    C   C165  0.825526  0.188831  0.069361  -0.050821
    C   C166  0.772145  0.239890  0.076672  -0.119391
    C   C167  0.747143  0.254023  0.104844  -0.176176
    C   C168  0.752023  0.245873  0.039593  0.343397
    C   C169  0.768649  0.235395  0.996517  0.268152
    C   C170  0.708977  0.259810  0.915771  0.072365
    C   C171  0.741389  0.246296  0.895073  -0.088346
    C   C172  0.764788  0.232498  0.924899  -0.252374
    C   C173  0.689926  0.297786  0.099035  -0.437574
    C   C174  0.189349  0.774942  0.084286  0.152541
    C   C175  0.162892  0.755129  0.111176  -0.289421
    C   C176  0.125940  0.771794  0.121340  0.182439
    C   C177  0.115684  0.809426  0.110750  -0.169668
    C   C178  0.140683  0.828346  0.084088  0.003296
    C   C179  0.174474  0.811169  0.069361  -0.050757
    C   C180  0.227855  0.760110  0.076672  -0.119368
    C   C181  0.252857  0.745977  0.104844  -0.176191
    C   C182  0.247977  0.754127  0.039593  0.343399
    C   C183  0.231351  0.764605  0.996517  0.268158
    C   C184  0.291023  0.740190  0.915771  0.072370
    C   C185  0.258611  0.753704  0.895073  -0.088345
    C   C186  0.235212  0.767502  0.924899  -0.252372
    C   C187  0.310074  0.702214  0.099035  -0.437563
    C   C188  0.250000  0.250000  0.350541  0.863074
    C   C189  0.810651  0.774942  0.915714  0.152629
    C   C190  0.837108  0.755129  0.888824  -0.289535
    C   C191  0.874060  0.771794  0.878660  0.182553
    C   C192  0.884316  0.809426  0.889250  -0.169831
    C   C193  0.859317  0.828346  0.915912  0.003391
    C   C194  0.825526  0.811169  0.930639  -0.050755
    C   C195  0.750000  0.250000  0.649459  0.863071
    C   C196  0.772145  0.760110  0.923328  -0.119394
    C   C197  0.747143  0.745977  0.895156  -0.175986
    C   C198  0.752023  0.754127  0.960407  0.343295
    C   C199  0.768649  0.764605  0.003483  0.268181
    C   C200  0.708977  0.740190  0.084229  0.072377
    C   C201  0.741389  0.753704  0.104927  -0.088351
    C   C202  0.764788  0.767502  0.075101  -0.252374
    C   C203  0.689926  0.702214  0.900965  -0.437537
    C   C204  0.225058  0.415714  0.689349  0.258346
    C   C205  0.244871  0.388824  0.662892  -0.237557
    C   C206  0.228206  0.378660  0.625940  0.075586
    C   C207  0.190574  0.389250  0.615684  -0.104941
    C   C208  0.171654  0.415912  0.640683  0.088845
    C   C209  0.188831  0.430639  0.674474  -0.214543
    C   C210  0.850541  0.250000  0.750000  0.865601
    C   C211  0.239890  0.423328  0.727855  -0.242844
    C   C212  0.254023  0.395156  0.752857  -0.138616
    C   C213  0.245873  0.460407  0.747977  0.308880
    C   C214  0.235395  0.503483  0.731351  0.274218
    C   C215  0.259810  0.584229  0.791023  0.063363
    C   C216  0.246296  0.604927  0.758611  -0.059380
    C   C217  0.232498  0.575101  0.735212  -0.273781
    C   C218  0.297786  0.400965  0.810074  -0.434838
    C   C219  0.225058  0.584286  0.310651  0.258263
    C   C220  0.244871  0.611176  0.337108  -0.237622
    C   C221  0.228206  0.621340  0.374060  0.075910
    C   C222  0.190574  0.610750  0.384316  -0.105282
    C   C223  0.171654  0.584088  0.359317  0.088960
    C   C224  0.188831  0.569361  0.325526  -0.214535
    C   C225  0.750000  0.149459  0.750000  0.854047
    C   C226  0.239890  0.576672  0.272145  -0.242790
    C   C227  0.254023  0.604844  0.247143  -0.138708
    C   C228  0.245873  0.539593  0.252023  0.308920
    C   C229  0.235395  0.496517  0.268649  0.274180
    C   C230  0.259810  0.415771  0.208977  0.063351
    C   C231  0.246296  0.395073  0.241389  -0.059368
    C   C232  0.232498  0.424899  0.264788  -0.273790
    C   C233  0.297786  0.599035  0.189926  -0.434854
    C   C234  0.774942  0.584286  0.689349  0.258335
    C   C235  0.755129  0.611176  0.662892  -0.237542
    C   C236  0.771794  0.621340  0.625940  0.075572
    C   C237  0.809426  0.610750  0.615684  -0.104938
    C   C238  0.828346  0.584088  0.640683  0.088840
    C   C239  0.811169  0.569361  0.674474  -0.214538
    C   C240  0.750000  0.350541  0.750000  0.861970
    C   C241  0.760110  0.576672  0.727855  -0.242827
    C   C242  0.745977  0.604844  0.752857  -0.138627
    C   C243  0.754127  0.539593  0.747977  0.308878
    C   C244  0.764605  0.496517  0.731351  0.274207
    C   C245  0.740190  0.415771  0.791023  0.063352
    C   C246  0.753704  0.395073  0.758611  -0.059364
    C   C247  0.767502  0.424899  0.735212  -0.273791
    C   C248  0.702214  0.599035  0.810074  -0.434838
    C   C249  0.774942  0.415714  0.310651  0.258257
    C   C250  0.755129  0.388824  0.337108  -0.237621
    C   C251  0.771794  0.378660  0.374060  0.075901
    C   C252  0.809426  0.389250  0.384316  -0.105258
    C   C253  0.828346  0.415912  0.359317  0.088948
    C   C254  0.811169  0.430639  0.325526  -0.214528
    C   C255  0.649459  0.250000  0.750000  0.860272
    C   C256  0.760110  0.423328  0.272145  -0.242786
    C   C257  0.745977  0.395156  0.247143  -0.138701
    C   C258  0.754127  0.460407  0.252023  0.308899
    C   C259  0.764605  0.503483  0.268649  0.274198
    C   C260  0.740190  0.584229  0.208977  0.063349
    C   C261  0.753704  0.604927  0.241389  -0.059369
    C   C262  0.767502  0.575101  0.264788  -0.273789
    C   C263  0.702214  0.400965  0.189926  -0.434846
    C   C264  0.189349  0.725058  0.415714  0.127615
    C   C265  0.162892  0.744871  0.388824  -0.286337
    C   C266  0.125940  0.728206  0.378660  0.144230
    C   C267  0.115684  0.690574  0.389250  -0.119996
    C   C268  0.140683  0.671654  0.415912  -0.091899
    C   C269  0.174474  0.688831  0.430639  0.071672
    C   C270  0.227855  0.739890  0.423328  -0.129438
    C   C271  0.750000  0.250000  0.850541  0.868189
    C   C272  0.252857  0.754023  0.395156  -0.176062
    C   C273  0.247977  0.745873  0.460407  0.324875
    C   C274  0.231351  0.735395  0.503483  0.278617
    C   C275  0.291023  0.759810  0.584229  0.052991
    C   C276  0.258611  0.746296  0.604927  -0.081743
    C   C277  0.235212  0.732498  0.575101  -0.239527
    C   C278  0.310074  0.797786  0.400965  -0.400300
    C   C279  0.810651  0.725058  0.584286  0.127580
    C   C280  0.837108  0.744871  0.611176  -0.286262
    C   C281  0.874060  0.728206  0.621340  0.144181
    C   C282  0.884316  0.690574  0.610750  -0.119946
    C   C283  0.859317  0.671654  0.584088  -0.091910
    C   C284  0.825526  0.688831  0.569361  0.071613
    C   C285  0.772145  0.739890  0.576672  -0.129454
    C   C286  0.747143  0.754023  0.604844  -0.176253
    C   C287  0.752023  0.745873  0.539593  0.325019
    C   C288  0.768649  0.735395  0.496517  0.278564
    C   C289  0.708977  0.759810  0.415771  0.052969
    C   C290  0.741389  0.746296  0.395073  -0.081729
    C   C291  0.764788  0.732498  0.424899  -0.239532
    C   C292  0.689926  0.797786  0.599035  -0.400310
    C   C293  0.189349  0.274942  0.584286  0.127559
    C   C294  0.162892  0.255129  0.611176  -0.286249
    C   C295  0.125940  0.271794  0.621340  0.144175
    C   C296  0.115684  0.309426  0.610750  -0.119942
    C   C297  0.140683  0.328346  0.584088  -0.091918
    C   C298  0.174474  0.311169  0.569361  0.071625
    C   C299  0.227855  0.260110  0.576672  -0.129432
    C   C300  0.252857  0.245977  0.604844  -0.176266
    C   C301  0.247977  0.254127  0.539593  0.325010
    C   C302  0.231351  0.264605  0.496517  0.278572
    C   C303  0.291023  0.240190  0.415771  0.052978
    C   C304  0.258611  0.253704  0.395073  -0.081730
    C   C305  0.235212  0.267502  0.424899  -0.239531
    C   C306  0.310074  0.202214  0.599035  -0.400316
    C   C307  0.810651  0.274942  0.415714  0.127691
    C   C308  0.837108  0.255129  0.388824  -0.286404
    C   C309  0.874060  0.271794  0.378660  0.144329
    C   C310  0.884316  0.309426  0.389250  -0.120167
    C   C311  0.859317  0.328346  0.415912  -0.091762
    C   C312  0.250000  0.750000  0.649459  0.863070
    C   C313  0.825526  0.311169  0.430639  0.071577
    C   C314  0.772145  0.260110  0.423328  -0.129470
    C   C315  0.747143  0.245977  0.395156  -0.176053
    C   C316  0.752023  0.254127  0.460407  0.324909
    C   C317  0.768649  0.264605  0.503483  0.278589
    C   C318  0.708977  0.240190  0.584229  0.052984
    C   C319  0.741389  0.253704  0.604927  -0.081736
    C   C320  0.764788  0.267502  0.575101  -0.239533
    C   C321  0.689926  0.202214  0.400965  -0.400287
    C   C322  0.415714  0.189349  0.725058  0.248924
    C   C323  0.388824  0.162892  0.744871  -0.240495
    C   C324  0.378660  0.125940  0.728206  0.102750
    C   C325  0.389250  0.115684  0.690574  -0.118133
    C   C326  0.415912  0.140683  0.671654  0.062748
    C   C327  0.430639  0.174474  0.688831  -0.164375
    C   C328  0.149459  0.750000  0.750000  0.865599
    C   C329  0.423328  0.227855  0.739890  -0.271315
    C   C330  0.395156  0.252857  0.754023  -0.117015
    C   C331  0.460407  0.247977  0.745873  0.310907
    C   C332  0.503483  0.231351  0.735395  0.271855
    C   C333  0.584229  0.291023  0.759810  0.058026
    C   C334  0.604927  0.258611  0.746296  -0.037223
    C   C335  0.575101  0.235212  0.732498  -0.274562
    C   C336  0.400965  0.310074  0.797786  -0.420132
    C   C337  0.584286  0.810651  0.725058  0.248836
    C   C338  0.611176  0.837108  0.744871  -0.240539
    C   C339  0.621340  0.874060  0.728206  0.103029
    C   C340  0.610750  0.884316  0.690574  -0.118384
    C   C341  0.584088  0.859317  0.671654  0.062858
    C   C342  0.569361  0.825526  0.688831  -0.164383
    C   C343  0.149459  0.250000  0.250000  0.865596
    C   C344  0.250000  0.850541  0.750000  0.854053
    C   C345  0.576672  0.772145  0.739890  -0.271255
    C   C346  0.604844  0.747143  0.754023  -0.117105
    C   C347  0.539593  0.752023  0.745873  0.310923
    C   C348  0.496517  0.768649  0.735395  0.271842
    C   C349  0.415771  0.708977  0.759810  0.058005
    C   C350  0.395073  0.741389  0.746296  -0.037232
    C   C351  0.424899  0.764788  0.732498  -0.274505
    C   C352  0.599035  0.689926  0.797786  -0.420144
    C   C353  0.584286  0.189349  0.274942  0.248933
    C   C354  0.611176  0.162892  0.255129  -0.240489
    C   C355  0.621340  0.125940  0.271794  0.102729
    C   C356  0.610750  0.115684  0.309426  -0.118140
    C   C357  0.584088  0.140683  0.328346  0.062763
    C   C358  0.569361  0.174474  0.311169  -0.164381
    C   C359  0.250000  0.649459  0.750000  0.861966
    C   C360  0.576672  0.227855  0.260110  -0.271301
    C   C361  0.604844  0.252857  0.245977  -0.117020
    C   C362  0.539593  0.247977  0.254127  0.310876
    C   C363  0.496517  0.231351  0.264605  0.271873
    C   C364  0.415771  0.291023  0.240190  0.058011
    C   C365  0.395073  0.258611  0.253704  -0.037202
    C   C366  0.424899  0.235212  0.267502  -0.274573
    C   C367  0.599035  0.310074  0.202214  -0.420115
    C   C368  0.415714  0.810651  0.274942  0.248930
    C   C369  0.388824  0.837108  0.255129  -0.240626
    C   C370  0.378660  0.874060  0.271794  0.103132
    C   C371  0.389250  0.884316  0.309426  -0.118566
    C   C372  0.415912  0.859317  0.328346  0.062993
    C   C373  0.430639  0.825526  0.311169  -0.164470
    C   C374  0.350541  0.750000  0.750000  0.860289
    C   C375  0.423328  0.772145  0.260110  -0.271309
    C   C376  0.395156  0.747143  0.245977  -0.117062
    C   C377  0.460407  0.752023  0.254127  0.310954
    C   C378  0.503483  0.768649  0.264605  0.271830
    C   C379  0.584229  0.708977  0.240190  0.058009
    C   C380  0.604927  0.741389  0.253704  -0.037242
    C   C381  0.575101  0.764788  0.267502  -0.274498
    C   C382  0.400965  0.689926  0.202214  -0.420116
    C   C383  0.250000  0.750000  0.850541  0.868186
    C   C384  0.250000  0.250000  0.649459  0.823544
    Cl  Cl1   0.931409  0.126017  0.126017  -0.029029
    Cl  Cl2   0.848221  0.094383  0.253062  -0.156507
    Cl  Cl3   0.068591  0.873983  0.126017  -0.029039
    Cl  Cl4   0.151779  0.905617  0.253062  -0.156514
    Cl  Cl5   0.068591  0.126017  0.873983  -0.029030
    Cl  Cl6   0.151779  0.094383  0.746938  -0.156497
    Cl  Cl7   0.931409  0.873983  0.873983  -0.029038
    Cl  Cl8   0.848221  0.905617  0.746938  -0.156505
    Cl  Cl9   0.126017  0.931409  0.126017  -0.025780
    Cl  Cl10  0.253062  0.848221  0.094382  -0.118489
    Cl  Cl11  0.126017  0.068591  0.873983  -0.025816
    Cl  Cl12  0.253062  0.151779  0.905617  -0.118660
    Cl  Cl13  0.873983  0.068591  0.126017  -0.025780
    Cl  Cl14  0.746938  0.151779  0.094382  -0.118470
    Cl  Cl15  0.873983  0.931409  0.873983  -0.025814
    Cl  Cl16  0.746938  0.848221  0.905617  -0.118665
    Cl  Cl17  0.126017  0.126017  0.931409  -0.019234
    Cl  Cl18  0.094383  0.253062  0.848221  -0.157826
    Cl  Cl19  0.873983  0.126017  0.068591  -0.019241
    Cl  Cl20  0.905617  0.253062  0.151779  -0.157827
    Cl  Cl21  0.126017  0.873983  0.068591  -0.019231
    Cl  Cl22  0.094383  0.746938  0.151779  -0.157820
    Cl  Cl23  0.873983  0.873983  0.931409  -0.019243
    Cl  Cl24  0.905617  0.746938  0.848221  -0.157830
    Cl  Cl25  0.126017  0.431409  0.626017  -0.055617
    Cl  Cl26  0.253062  0.348221  0.594382  -0.124081
    Cl  Cl27  0.126017  0.568591  0.373983  -0.055633
    Cl  Cl28  0.253062  0.651779  0.405617  -0.124251
    Cl  Cl29  0.873983  0.568591  0.626017  -0.055616
    Cl  Cl30  0.746938  0.651779  0.594382  -0.124071
    Cl  Cl31  0.873983  0.431409  0.373983  -0.055630
    Cl  Cl32  0.746938  0.348221  0.405617  -0.124249
    Cl  Cl33  0.126017  0.626017  0.431409  -0.012237
    Cl  Cl34  0.094382  0.753062  0.348221  -0.092598
    Cl  Cl35  0.873983  0.626017  0.568591  -0.012239
    Cl  Cl36  0.905618  0.753062  0.651779  -0.092594
    Cl  Cl37  0.126017  0.373983  0.568591  -0.012235
    Cl  Cl38  0.094382  0.246938  0.651779  -0.092588
    Cl  Cl39  0.873983  0.373983  0.431409  -0.012249
    Cl  Cl40  0.905618  0.246938  0.348221  -0.092607
    Cl  Cl41  0.431409  0.126017  0.626017  -0.067177
    Cl  Cl42  0.348221  0.094382  0.753062  -0.077306
    Cl  Cl43  0.568591  0.873983  0.626017  -0.067186
    Cl  Cl44  0.651779  0.905617  0.753062  -0.077515
    Cl  Cl45  0.568591  0.126017  0.373983  -0.067179
    Cl  Cl46  0.651779  0.094382  0.246938  -0.077280
    Cl  Cl47  0.431409  0.873983  0.373983  -0.067200
    Cl  Cl48  0.348221  0.905617  0.246938  -0.077509
    H   H1    0.877403  0.168857  0.272732  0.132513
    H   H2    0.873619  0.093911  0.173529  0.142196
    H   H3    0.951814  0.191556  0.170929  0.083308
    H   H4    0.095983  0.316972  0.272893  0.119538
    H   H5    0.077172  0.206168  0.218285  0.176537
    H   H6    0.885663  0.291902  0.320238  0.091939
    H   H7    0.924824  0.326053  0.313247  0.154543
    H   H8    0.884023  0.331744  0.282170  0.072908
    H   H9    0.122597  0.831143  0.272732  0.132516
    H   H10   0.126381  0.906089  0.173529  0.142215
    H   H11   0.048186  0.808444  0.170929  0.083312
    H   H12   0.904017  0.683028  0.272893  0.119544
    H   H13   0.922828  0.793832  0.218285  0.176536
    H   H14   0.114337  0.708098  0.320238  0.091931
    H   H15   0.075176  0.673947  0.313247  0.154552
    H   H16   0.115977  0.668256  0.282170  0.072913
    H   H17   0.122597  0.168857  0.727268  0.132507
    H   H18   0.126381  0.093911  0.826471  0.142192
    H   H19   0.048186  0.191556  0.829071  0.083306
    H   H20   0.904017  0.316972  0.727107  0.119539
    H   H21   0.922828  0.206168  0.781715  0.176537
    H   H22   0.114337  0.291902  0.679762  0.091921
    H   H23   0.075176  0.326053  0.686753  0.154549
    H   H24   0.115977  0.331744  0.717830  0.072903
    H   H25   0.877403  0.831143  0.727268  0.132512
    H   H26   0.873619  0.906089  0.826471  0.142200
    H   H27   0.951814  0.808444  0.829071  0.083316
    H   H28   0.095983  0.683028  0.727107  0.119540
    H   H29   0.077172  0.793832  0.781715  0.176537
    H   H30   0.885663  0.708098  0.679762  0.091915
    H   H31   0.924824  0.673947  0.686753  0.154548
    H   H32   0.884023  0.668256  0.717830  0.072903
    H   H33   0.272732  0.877403  0.168857  0.106296
    H   H34   0.173529  0.873619  0.093911  0.120245
    H   H35   0.170929  0.951814  0.191556  0.083174
    H   H36   0.272893  0.095983  0.316972  0.112011
    H   H37   0.218285  0.077172  0.206168  0.181328
    H   H38   0.320238  0.885663  0.291902  0.074827
    H   H39   0.313247  0.924824  0.326053  0.187034
    H   H40   0.282170  0.884023  0.331744  0.102354
    H   H41   0.272732  0.122597  0.831143  0.106318
    H   H42   0.173529  0.126381  0.906089  0.120430
    H   H43   0.170929  0.048186  0.808444  0.083156
    H   H44   0.272893  0.904017  0.683028  0.112012
    H   H45   0.218285  0.922828  0.793832  0.181323
    H   H46   0.320238  0.114337  0.708098  0.074765
    H   H47   0.313247  0.075176  0.673947  0.187044
    H   H48   0.282170  0.115977  0.668256  0.102327
    H   H49   0.727268  0.122597  0.168857  0.106238
    H   H50   0.826471  0.126381  0.093911  0.120249
    H   H51   0.829071  0.048186  0.191556  0.083152
    H   H52   0.727107  0.904017  0.316972  0.112009
    H   H53   0.781715  0.922828  0.206168  0.181326
    H   H54   0.679762  0.114337  0.291902  0.074762
    H   H55   0.686753  0.075176  0.326053  0.187037
    H   H56   0.717830  0.115977  0.331744  0.102335
    H   H57   0.727268  0.877403  0.831143  0.106371
    H   H58   0.826471  0.873619  0.906089  0.120416
    H   H59   0.829071  0.951814  0.808444  0.083180
    H   H60   0.727107  0.095983  0.683028  0.112016
    H   H61   0.781715  0.077172  0.793832  0.181326
    H   H62   0.679762  0.885663  0.708098  0.074830
    H   H63   0.686753  0.924824  0.673947  0.187045
    H   H64   0.717830  0.884023  0.668256  0.102356
    H   H65   0.168857  0.272732  0.877403  0.155593
    H   H66   0.093911  0.173529  0.873619  0.139863
    H   H67   0.191556  0.170929  0.951814  0.085813
    H   H68   0.316972  0.272893  0.095983  0.110256
    H   H69   0.206168  0.218285  0.077172  0.181545
    H   H70   0.291902  0.320238  0.885663  0.095242
    H   H71   0.326053  0.313247  0.924824  0.199110
    H   H72   0.331744  0.282170  0.884023  0.132781
    H   H73   0.831143  0.272732  0.122597  0.155591
    H   H74   0.906089  0.173529  0.126381  0.139864
    H   H75   0.808444  0.170929  0.048186  0.085904
    H   H76   0.683028  0.272893  0.904017  0.110262
    H   H77   0.793832  0.218285  0.922828  0.181544
    H   H78   0.708098  0.320238  0.114337  0.095251
    H   H79   0.673947  0.313247  0.075176  0.199108
    H   H80   0.668256  0.282170  0.115977  0.132790
    H   H81   0.168857  0.727268  0.122597  0.155585
    H   H82   0.093911  0.826471  0.126381  0.139837
    H   H83   0.191556  0.829071  0.048186  0.085902
    H   H84   0.316972  0.727107  0.904017  0.110259
    H   H85   0.206168  0.781715  0.922828  0.181545
    H   H86   0.291902  0.679762  0.114337  0.095247
    H   H87   0.326053  0.686753  0.075176  0.199102
    H   H88   0.331744  0.717830  0.115977  0.132791
    H   H89   0.831143  0.727268  0.877403  0.155597
    H   H90   0.906089  0.826471  0.873619  0.139880
    H   H91   0.808444  0.829071  0.951814  0.085820
    H   H92   0.683028  0.727107  0.095983  0.110260
    H   H93   0.793832  0.781715  0.077172  0.181544
    H   H94   0.708098  0.679762  0.885663  0.095237
    H   H95   0.673947  0.686753  0.924824  0.199106
    H   H96   0.668256  0.717830  0.884023  0.132780
    H   H97   0.272732  0.377403  0.668857  0.151018
    H   H98   0.173529  0.373619  0.593911  0.105462
    H   H99   0.170929  0.451814  0.691556  0.113413
    H   H100  0.272893  0.595983  0.816972  0.111490
    H   H101  0.218285  0.577172  0.706168  0.175106
    H   H102  0.320238  0.385663  0.791902  0.105408
    H   H103  0.313247  0.424824  0.826053  0.190577
    H   H104  0.282170  0.384023  0.831744  0.139854
    H   H105  0.272732  0.622597  0.331143  0.151082
    H   H106  0.173529  0.626381  0.406089  0.105602
    H   H107  0.170929  0.548186  0.308444  0.113405
    H   H108  0.272893  0.404017  0.183028  0.111496
    H   H109  0.218285  0.422828  0.293832  0.175106
    H   H110  0.320238  0.614337  0.208098  0.105404
    H   H111  0.313247  0.575176  0.173947  0.190584
    H   H112  0.282170  0.615977  0.168256  0.139853
    H   H113  0.727268  0.622597  0.668857  0.151011
    H   H114  0.826471  0.626381  0.593911  0.105466
    H   H115  0.829071  0.548186  0.691556  0.113412
    H   H116  0.727107  0.404017  0.816972  0.111492
    H   H117  0.781715  0.422828  0.706168  0.175106
    H   H118  0.679762  0.614337  0.791902  0.105408
    H   H119  0.686753  0.575176  0.826053  0.190579
    H   H120  0.717830  0.615977  0.831744  0.139852
    H   H121  0.727268  0.377403  0.331143  0.151085
    H   H122  0.826471  0.373619  0.406089  0.105584
    H   H123  0.829071  0.451814  0.308444  0.113404
    H   H124  0.727107  0.595983  0.183028  0.111495
    H   H125  0.781715  0.577172  0.293832  0.175106
    H   H126  0.679762  0.385663  0.208098  0.105406
    H   H127  0.686753  0.424824  0.173947  0.190581
    H   H128  0.717830  0.384023  0.168256  0.139850
    H   H129  0.168857  0.772732  0.377403  0.166772
    H   H130  0.093911  0.673529  0.373619  0.127766
    H   H131  0.191556  0.670929  0.451814  0.079365
    H   H132  0.316972  0.772893  0.595983  0.124930
    H   H133  0.206167  0.718285  0.577172  0.175456
    H   H134  0.291902  0.820238  0.385663  0.107523
    H   H135  0.326053  0.813247  0.424824  0.170446
    H   H136  0.331744  0.782170  0.384023  0.112268
    H   H137  0.831143  0.772732  0.622597  0.166764
    H   H138  0.906089  0.673529  0.626381  0.127757
    H   H139  0.808444  0.670929  0.548186  0.079454
    H   H140  0.683028  0.772893  0.404017  0.124935
    H   H141  0.793833  0.718285  0.422828  0.175456
    H   H142  0.708098  0.820238  0.614337  0.107529
    H   H143  0.673947  0.813247  0.575176  0.170442
    H   H144  0.668256  0.782170  0.615977  0.112278
    H   H145  0.168857  0.227268  0.622597  0.166759
    H   H146  0.093911  0.326471  0.626381  0.127755
    H   H147  0.191556  0.329071  0.548186  0.079454
    H   H148  0.316972  0.227107  0.404017  0.124930
    H   H149  0.206167  0.281715  0.422828  0.175458
    H   H150  0.291902  0.179762  0.614337  0.107538
    H   H151  0.326053  0.186753  0.575176  0.170442
    H   H152  0.331744  0.217830  0.615977  0.112279
    H   H153  0.831143  0.227268  0.377403  0.166780
    H   H154  0.906089  0.326471  0.373619  0.127802
    H   H155  0.808444  0.329071  0.451814  0.079377
    H   H156  0.683028  0.227107  0.595983  0.124931
    H   H157  0.793833  0.281715  0.577172  0.175456
    H   H158  0.708098  0.179762  0.385663  0.107525
    H   H159  0.673947  0.186753  0.424824  0.170446
    H   H160  0.668256  0.217830  0.384023  0.112267
    H   H161  0.377403  0.168857  0.772732  0.159277
    H   H162  0.373619  0.093911  0.673529  0.110959
    H   H163  0.451814  0.191556  0.670929  0.121783
    H   H164  0.595983  0.316972  0.772893  0.114799
    H   H165  0.577172  0.206167  0.718285  0.173308
    H   H166  0.385663  0.291902  0.820238  0.108942
    H   H167  0.424824  0.326053  0.813247  0.186977
    H   H168  0.384023  0.331744  0.782170  0.128578
    H   H169  0.622597  0.831143  0.772732  0.159351
    H   H170  0.626381  0.906089  0.673529  0.111016
    H   H171  0.548186  0.808444  0.670929  0.121782
    H   H172  0.404017  0.683028  0.772893  0.114808
    H   H173  0.422828  0.793832  0.718285  0.173269
    H   H174  0.614337  0.708098  0.820238  0.108943
    H   H175  0.575176  0.673947  0.813247  0.186981
    H   H176  0.615977  0.668256  0.782170  0.128580
    H   H177  0.622597  0.168857  0.227268  0.159267
    H   H178  0.626381  0.093911  0.326471  0.110960
    H   H179  0.548186  0.191556  0.329071  0.121783
    H   H180  0.404017  0.316972  0.227107  0.114801
    H   H181  0.422828  0.206167  0.281715  0.173308
    H   H182  0.614337  0.291902  0.179762  0.108938
    H   H183  0.575176  0.326053  0.186753  0.186970
    H   H184  0.615977  0.331744  0.217830  0.128577
    H   H185  0.377403  0.831143  0.227268  0.159358
    H   H186  0.373619  0.906089  0.326471  0.111054
    H   H187  0.451814  0.808444  0.329071  0.121789
    H   H188  0.595983  0.683028  0.227107  0.114806
    H   H189  0.577172  0.793832  0.281715  0.173269
    H   H190  0.385663  0.708098  0.179762  0.108936
    H   H191  0.424824  0.673947  0.186753  0.186971
    H   H192  0.384023  0.668256  0.217830  0.128580
    N   N1    0.915389  0.281590  0.271514  0.578004
    N   N2    0.954300  0.280312  0.265674  -0.614517
    N   N3    0.040718  0.254576  0.240694  0.415023
    N   N4    0.045548  0.288676  0.256575  -0.437498
    N   N5    0.084611  0.718410  0.271514  0.578012
    N   N6    0.045700  0.719688  0.265674  -0.614523
    N   N7    0.959282  0.745424  0.240694  0.415044
    N   N8    0.954452  0.711324  0.256575  -0.437502
    N   N9    0.084611  0.281590  0.728486  0.578007
    N   N10   0.045700  0.280312  0.734326  -0.614519
    N   N11   0.959282  0.254576  0.759306  0.415031
    N   N12   0.954452  0.288676  0.743425  -0.437499
    N   N13   0.915389  0.718410  0.728486  0.577989
    N   N14   0.954300  0.719688  0.734326  -0.614524
    N   N15   0.040718  0.745424  0.759306  0.415040
    N   N16   0.045548  0.711324  0.743425  -0.437501
    N   N17   0.271514  0.915389  0.281590  0.568062
    N   N18   0.265674  0.954300  0.280312  -0.622580
    N   N19   0.240694  0.040718  0.254576  0.411730
    N   N20   0.256575  0.045548  0.288676  -0.439781
    N   N21   0.271514  0.084611  0.718410  0.568231
    N   N22   0.265674  0.045700  0.719688  -0.622603
    N   N23   0.240694  0.959282  0.745424  0.411746
    N   N24   0.256575  0.954452  0.711324  -0.439802
    N   N25   0.728486  0.084611  0.281590  0.568176
    N   N26   0.734326  0.045700  0.280312  -0.622584
    N   N27   0.759306  0.959282  0.254576  0.411740
    N   N28   0.743425  0.954452  0.288676  -0.439796
    N   N29   0.728486  0.915389  0.718410  0.568115
    N   N30   0.734326  0.954300  0.719688  -0.622599
    N   N31   0.759306  0.040718  0.745424  0.411743
    N   N32   0.743425  0.045548  0.711324  -0.439784
    N   N33   0.281590  0.271514  0.915389  0.556115
    N   N34   0.280312  0.265674  0.954300  -0.604341
    N   N35   0.254576  0.240694  0.040718  0.402696
    N   N36   0.288676  0.256575  0.045548  -0.438982
    N   N37   0.718410  0.271514  0.084611  0.556261
    N   N38   0.719688  0.265674  0.045700  -0.604436
    N   N39   0.745424  0.240694  0.959282  0.402719
    N   N40   0.711324  0.256575  0.954452  -0.438974
    N   N41   0.281590  0.728486  0.084611  0.556263
    N   N42   0.280312  0.734326  0.045700  -0.604440
    N   N43   0.254576  0.759306  0.959282  0.402708
    N   N44   0.288676  0.743425  0.954452  -0.438971
    N   N45   0.718410  0.728486  0.915389  0.556114
    N   N46   0.719688  0.734326  0.954300  -0.604357
    N   N47   0.745424  0.759306  0.040718  0.402716
    N   N48   0.711324  0.743425  0.045548  -0.438983
    N   N49   0.271514  0.415389  0.781590  0.577064
    N   N50   0.265674  0.454300  0.780312  -0.589512
    N   N51   0.240694  0.540718  0.754576  0.393614
    N   N52   0.256575  0.545548  0.788676  -0.425730
    N   N53   0.271514  0.584611  0.218410  0.577095
    N   N54   0.265674  0.545700  0.219688  -0.589527
    N   N55   0.240694  0.459282  0.245424  0.393645
    N   N56   0.256575  0.454452  0.211324  -0.425741
    N   N57   0.728486  0.584611  0.781590  0.577065
    N   N58   0.734326  0.545700  0.780312  -0.589511
    N   N59   0.759306  0.459282  0.754576  0.393627
    N   N60   0.743425  0.454452  0.788676  -0.425731
    N   N61   0.728486  0.415389  0.218410  0.577085
    N   N62   0.734326  0.454300  0.219688  -0.589522
    N   N63   0.759306  0.540718  0.245424  0.393634
    N   N64   0.743425  0.545548  0.211324  -0.425733
    N   N65   0.281590  0.771514  0.415389  0.571946
    N   N66   0.280312  0.765674  0.454300  -0.583042
    N   N67   0.254576  0.740694  0.540718  0.387176
    N   N68   0.288676  0.756575  0.545548  -0.428464
    N   N69   0.718410  0.771514  0.584611  0.572082
    N   N70   0.719688  0.765674  0.545700  -0.583137
    N   N71   0.745424  0.740694  0.459282  0.387195
    N   N72   0.711324  0.756575  0.454452  -0.428456
    N   N73   0.281590  0.228486  0.584611  0.572082
    N   N74   0.280312  0.234326  0.545700  -0.583134
    N   N75   0.254576  0.259306  0.459282  0.387184
    N   N76   0.288676  0.243425  0.454452  -0.428454
    N   N77   0.718410  0.228486  0.415389  0.571930
    N   N78   0.719688  0.234326  0.454300  -0.583051
    N   N79   0.745424  0.259306  0.540718  0.387194
    N   N80   0.711324  0.243425  0.545548  -0.428466
    N   N81   0.415389  0.281590  0.771514  0.583468
    N   N82   0.454300  0.280312  0.765674  -0.584310
    N   N83   0.540718  0.254576  0.740694  0.382500
    N   N84   0.545548  0.288676  0.756575  -0.422215
    N   N85   0.584611  0.718410  0.771514  0.583499
    N   N86   0.545700  0.719688  0.765674  -0.584321
    N   N87   0.459282  0.745424  0.740694  0.382503
    N   N88   0.454452  0.711324  0.756575  -0.422216
    N   N89   0.584611  0.281590  0.228486  0.583475
    N   N90   0.545700  0.280312  0.234326  -0.584308
    N   N91   0.459282  0.254576  0.259306  0.382498
    N   N92   0.454452  0.288676  0.243425  -0.422209
    N   N93   0.415389  0.718410  0.228486  0.583476
    N   N94   0.454300  0.719688  0.234326  -0.584330
    N   N95   0.540718  0.745424  0.259306  0.382501
    N   N96   0.545548  0.711324  0.243425  -0.422212
    O   O1    0.167200  0.271727  0.228273  -0.743060
    O   O2    0.228273  0.167200  0.728273  -0.729912
    O   O3    0.271727  0.167200  0.771727  -0.677556
    O   O4    0.167200  0.228273  0.728273  -0.675278
    O   O5    0.167200  0.271727  0.771727  -0.687612
    O   O6    0.332800  0.271727  0.728273  -0.752832
    O   O7    0.332800  0.228273  0.771727  -0.730023
    O   O8    0.271727  0.332800  0.728273  -0.718819
    O   O9    0.228273  0.332800  0.771727  -0.743439
    O   O10   0.271727  0.228273  0.832800  -0.740878
    O   O11   0.228273  0.271727  0.832800  -0.732138
    O   O12   0.750000  0.750000  0.750000  -1.812599
    O   O13   0.228273  0.167200  0.271727  -0.746953
    O   O14   0.771727  0.771727  0.667200  -0.743578
    O   O15   0.728273  0.728273  0.667200  -0.712418
    O   O16   0.771727  0.832800  0.728273  -0.729926
    O   O17   0.728273  0.832800  0.771727  -0.677443
    O   O18   0.832800  0.771727  0.728273  -0.675282
    O   O19   0.832800  0.728273  0.771727  -0.687628
    O   O20   0.271727  0.167200  0.228273  -0.762927
    O   O21   0.667200  0.728273  0.728273  -0.752831
    O   O22   0.667200  0.771727  0.771727  -0.730055
    O   O23   0.728273  0.667200  0.728273  -0.718810
    O   O24   0.771727  0.667200  0.771727  -0.743431
    O   O25   0.728273  0.771727  0.832800  -0.740907
    O   O26   0.771727  0.728273  0.832800  -0.732148
    O   O27   0.250000  0.750000  0.250000  -1.812593
    O   O28   0.228273  0.771727  0.332800  -0.743626
    O   O29   0.271727  0.728273  0.332800  -0.712322
    O   O30   0.228273  0.832800  0.271727  -0.729901
    O   O31   0.271727  0.832800  0.228273  -0.677432
    O   O32   0.271727  0.332800  0.271727  -0.777051
    O   O33   0.167200  0.771727  0.271727  -0.675255
    O   O34   0.167200  0.728273  0.228273  -0.687631
    O   O35   0.332800  0.728273  0.271727  -0.752842
    O   O36   0.332800  0.771727  0.228273  -0.730042
    O   O37   0.271727  0.667200  0.271727  -0.718827
    O   O38   0.228273  0.667200  0.228273  -0.743449
    O   O39   0.271727  0.771727  0.167200  -0.740993
    O   O40   0.228273  0.332800  0.228273  -0.759025
    O   O41   0.228273  0.728273  0.167200  -0.732103
    O   O42   0.750000  0.250000  0.250000  -1.812615
    O   O43   0.771727  0.228273  0.332800  -0.743630
    O   O44   0.728273  0.271727  0.332800  -0.712326
    O   O45   0.771727  0.167200  0.271727  -0.729891
    O   O46   0.728273  0.167200  0.228273  -0.677544
    O   O47   0.832800  0.228273  0.271727  -0.675273
    O   O48   0.832800  0.271727  0.228273  -0.687631
    O   O49   0.667200  0.271727  0.271727  -0.752830
    O   O50   0.667200  0.228273  0.228273  -0.729995
    O   O51   0.728273  0.332800  0.271727  -0.718838
    O   O52   0.332800  0.271727  0.271727  -0.774992
    O   O53   0.771727  0.332800  0.228273  -0.743456
    O   O54   0.728273  0.228273  0.167200  -0.740971
    O   O55   0.771727  0.271727  0.167200  -0.732093
    O   O56   0.332800  0.228273  0.228273  -0.781760
    O   O57   0.001721  0.197587  0.222924  -0.420046
    O   O58   0.228273  0.271727  0.167200  -0.774227
    O   O59   0.271727  0.228273  0.167200  -0.756592
    O   O60   0.998279  0.802413  0.222924  -0.420039
    O   O61   0.998279  0.197587  0.777076  -0.420042
    O   O62   0.750000  0.750000  0.250000  -1.901089
    O   O63   0.001721  0.802413  0.777076  -0.420037
    O   O64   0.771727  0.771727  0.332800  -0.774692
    O   O65   0.728273  0.728273  0.332800  -0.751363
    O   O66   0.222924  0.001721  0.197587  -0.421399
    O   O67   0.832800  0.771727  0.271727  -0.758318
    O   O68   0.832800  0.728273  0.228273  -0.743064
    O   O69   0.222924  0.998279  0.802413  -0.421392
    O   O70   0.771727  0.832800  0.271727  -0.746962
    O   O71   0.728273  0.832800  0.228273  -0.762934
    O   O72   0.777076  0.998279  0.197587  -0.421398
    O   O73   0.728273  0.667200  0.271727  -0.777048
    O   O74   0.771727  0.667200  0.228273  -0.759022
    O   O75   0.250000  0.250000  0.250000  -1.901085
    O   O76   0.777076  0.001721  0.802413  -0.421389
    O   O77   0.667200  0.728273  0.271727  -0.774984
    O   O78   0.667200  0.771727  0.228273  -0.781765
    O   O79   0.197587  0.222924  0.001721  -0.422976
    O   O80   0.771727  0.728273  0.167200  -0.774227
    O   O81   0.728273  0.771727  0.167200  -0.756591
    O   O82   0.802413  0.222924  0.998279  -0.422973
    O   O83   0.197587  0.777076  0.998279  -0.422977
    O   O84   0.750000  0.250000  0.750000  -1.901087
    O   O85   0.771727  0.228273  0.667200  -0.774689
    O   O86   0.802413  0.777076  0.001721  -0.422969
    O   O87   0.728273  0.271727  0.667200  -0.751361
    O   O88   0.222924  0.501721  0.697587  -0.376989
    O   O89   0.832800  0.228273  0.728273  -0.758318
    O   O90   0.832800  0.271727  0.771727  -0.743065
    O   O91   0.222924  0.498279  0.302413  -0.376983
    O   O92   0.771727  0.167200  0.728273  -0.746953
    O   O93   0.728273  0.167200  0.771727  -0.762928
    O   O94   0.228273  0.228273  0.332800  -0.774692
    O   O95   0.777076  0.498279  0.697587  -0.376986
    O   O96   0.728273  0.332800  0.728273  -0.777054
    O   O97   0.771727  0.332800  0.771727  -0.759028
    O   O98   0.777076  0.501721  0.302413  -0.376984
    O   O99   0.667200  0.271727  0.728273  -0.774987
    O   O100  0.667200  0.228273  0.771727  -0.781754
    O   O101  0.197587  0.722924  0.501721  -0.429308
    O   O102  0.771727  0.271727  0.832800  -0.774231
    O   O103  0.728273  0.228273  0.832800  -0.756596
    O   O104  0.802413  0.722924  0.498279  -0.429309
    O   O105  0.271727  0.271727  0.332800  -0.751364
    O   O106  0.197587  0.277076  0.498279  -0.429312
    O   O107  0.250000  0.750000  0.750000  -1.901088
    O   O108  0.228273  0.771727  0.667200  -0.774688
    O   O109  0.802413  0.277076  0.501721  -0.429299
    O   O110  0.271727  0.728273  0.667200  -0.751360
    O   O111  0.167200  0.771727  0.728273  -0.758314
    O   O112  0.501721  0.197587  0.722924  -0.369195
    O   O113  0.167200  0.728273  0.771727  -0.743060
    O   O114  0.228273  0.832800  0.728273  -0.746960
    O   O115  0.498279  0.802413  0.722924  -0.369194
    O   O116  0.271727  0.832800  0.771727  -0.762931
    O   O117  0.498279  0.197587  0.277076  -0.369198
    O   O118  0.271727  0.667200  0.728273  -0.777048
    O   O119  0.228273  0.667200  0.771727  -0.759021
    O   O120  0.501721  0.802413  0.277076  -0.369190
    O   O121  0.332800  0.728273  0.728273  -0.774987
    O   O122  0.332800  0.771727  0.771727  -0.781766
    O   O123  0.167200  0.228273  0.271727  -0.758312
    O   O124  0.228273  0.728273  0.832800  -0.774231
    O   O125  0.271727  0.771727  0.832800  -0.756594
    O   O126  0.250000  0.250000  0.750000  -1.812615
    O   O127  0.228273  0.228273  0.667200  -0.743583
    O   O128  0.271727  0.271727  0.667200  -0.712417
    Zn  Zn1   0.218670  0.218670  0.281330  1.552512
    Zn  Zn2   0.281330  0.281330  0.281330  1.559284
    Zn  Zn3   0.781330  0.781330  0.718670  1.492946
    Zn  Zn4   0.718670  0.718670  0.718670  1.516013
    Zn  Zn5   0.718670  0.781330  0.781330  1.491415
    Zn  Zn6   0.781330  0.718670  0.781330  1.504495
    Zn  Zn7   0.218670  0.781330  0.281330  1.492946
    Zn  Zn8   0.281330  0.718670  0.281330  1.515956
    Zn  Zn9   0.281330  0.781330  0.218670  1.491469
    Zn  Zn10  0.218670  0.718670  0.218670  1.504482
    Zn  Zn11  0.781330  0.218670  0.281330  1.492948
    Zn  Zn12  0.718670  0.281330  0.281330  1.515969
    Zn  Zn13  0.718670  0.218670  0.218670  1.491501
    Zn  Zn14  0.781330  0.281330  0.218670  1.504484
    Zn  Zn15  0.218670  0.281330  0.218670  1.540364
    Zn  Zn16  0.781330  0.781330  0.281330  1.552518
    Zn  Zn17  0.718670  0.718670  0.281330  1.559280
    Zn  Zn18  0.781330  0.718670  0.218670  1.540365
    Zn  Zn19  0.718670  0.781330  0.218670  1.570736
    Zn  Zn20  0.281330  0.218670  0.218670  1.570732
    Zn  Zn21  0.781330  0.218670  0.718670  1.552514
    Zn  Zn22  0.718670  0.281330  0.718670  1.559285
    Zn  Zn23  0.781330  0.281330  0.781330  1.540367
    Zn  Zn24  0.718670  0.218670  0.781330  1.570731
    Zn  Zn25  0.218670  0.781330  0.718670  1.552515
    Zn  Zn26  0.281330  0.718670  0.718670  1.559279
    Zn  Zn27  0.218670  0.718670  0.781330  1.540364
    Zn  Zn28  0.281330  0.781330  0.781330  1.570736
    Zn  Zn29  0.218670  0.218670  0.718670  1.492936
    Zn  Zn30  0.281330  0.281330  0.718670  1.516024
    Zn  Zn31  0.281330  0.218670  0.781330  1.491449
    Zn  Zn32  0.218670  0.281330  0.781330  1.504489
