# Generated by REPEAT Assigner based on pymatgen
data_DB13-pcu-Syn038053
_audit_creation_date              2022-05-24
_audit_creation_method            REPEAT_Assigner
_cell_length_a                    24.193900
_cell_length_b                    24.193900
_cell_length_c                    24.193900
_cell_angle_alpha                 90.000000
_cell_angle_beta                  90.000000
_cell_angle_gamma                 90.000000
_cell_volume                      14161.773489
_symmetry_space_group_name_H-M    P1
_symmetry_Int_Tables_number       1
loop_
    _symmetry_equiv_pos_site_id
    _symmetry_equiv_pos_as_xyz
    1  x,y,z
loop_
    _atom_site_type_symbol
    _atom_site_label
    _atom_site_fract_x
    _atom_site_fract_y
    _atom_site_fract_z
    _atom_type_partial_charge
    C   C1    0.250000  0.107109  0.750000  0.765652
    C   C2    0.107109  0.250000  0.750000  0.735530
    C   C3    0.392891  0.250000  0.750000  0.810630
    C   C4    0.250000  0.392891  0.750000  0.791934
    C   C5    0.250000  0.107109  0.250000  0.845984
    C   C6    0.250000  0.250000  0.892891  0.778350
    C   C7    0.750000  0.750000  0.607109  0.764557
    C   C8    0.750000  0.892891  0.750000  0.765608
    C   C9    0.892891  0.750000  0.750000  0.735502
    C   C10   0.607109  0.750000  0.750000  0.810633
    C   C11   0.750000  0.607109  0.750000  0.791955
    C   C12   0.750000  0.750000  0.892891  0.778292
    C   C13   0.250000  0.392891  0.250000  0.822977
    C   C14   0.250000  0.750000  0.392891  0.764554
    C   C15   0.250000  0.892891  0.250000  0.765650
    C   C16   0.107109  0.750000  0.250000  0.735530
    C   C17   0.392891  0.750000  0.250000  0.810629
    C   C18   0.250000  0.607109  0.250000  0.791938
    C   C19   0.250000  0.750000  0.107109  0.778351
    C   C20   0.750000  0.250000  0.392891  0.764554
    C   C21   0.750000  0.107109  0.250000  0.765651
    C   C22   0.392891  0.250000  0.250000  0.868828
    C   C23   0.892891  0.250000  0.250000  0.735528
    C   C24   0.607109  0.250000  0.250000  0.810631
    C   C25   0.750000  0.392891  0.250000  0.791935
    C   C26   0.750000  0.250000  0.107109  0.778352
    C   C27   0.946891  0.261659  0.120901  -0.442184
    C   C28   0.021505  0.138160  0.124777  0.211202
    C   C29   0.030386  0.154080  0.181026  -0.578174
    C   C30   0.998877  0.201353  0.188771  0.269839
    C   C31   0.999384  0.235683  0.234194  -0.322005
    C   C32   0.043661  0.256813  0.262626  0.394685
    C   C33   0.952568  0.257373  0.259438  0.018258
    C   C34   0.250000  0.250000  0.107109  0.827624
    C   C35   0.053109  0.738341  0.120901  -0.442185
    C   C36   0.978495  0.861840  0.124777  0.211198
    C   C37   0.969614  0.845920  0.181026  -0.578169
    C   C38   0.001123  0.798647  0.188771  0.269838
    C   C39   0.000616  0.764317  0.234194  -0.322011
    C   C40   0.956339  0.743187  0.262626  0.394686
    C   C41   0.047432  0.742627  0.259438  0.018263
    C   C42   0.053109  0.261659  0.879099  -0.442187
    C   C43   0.978495  0.138160  0.875223  0.211198
    C   C44   0.969614  0.154080  0.818974  -0.578169
    C   C45   0.001123  0.201353  0.811229  0.269837
    C   C46   0.000616  0.235683  0.765806  -0.322007
    C   C47   0.956339  0.256813  0.737374  0.394683
    C   C48   0.047432  0.257373  0.740562  0.018262
    C   C49   0.946891  0.738341  0.879099  -0.442198
    C   C50   0.021505  0.861840  0.875223  0.211195
    C   C51   0.030386  0.845920  0.818974  -0.578155
    C   C52   0.998877  0.798647  0.811229  0.269797
    C   C53   0.999384  0.764317  0.765806  -0.321966
    C   C54   0.043661  0.743187  0.737374  0.394647
    C   C55   0.952568  0.742627  0.740562  0.018284
    C   C56   0.120901  0.946891  0.261659  -0.425924
    C   C57   0.124777  0.021505  0.138160  0.215629
    C   C58   0.181026  0.030386  0.154080  -0.573819
    C   C59   0.188771  0.998877  0.201353  0.232836
    C   C60   0.234194  0.999384  0.235683  -0.270364
    C   C61   0.262626  0.043661  0.256813  0.352487
    C   C62   0.259438  0.952568  0.257373  0.007315
    C   C63   0.120901  0.053109  0.738341  -0.425925
    C   C64   0.124777  0.978495  0.861840  0.215625
    C   C65   0.181026  0.969614  0.845920  -0.573814
    C   C66   0.188771  0.001123  0.798647  0.232835
    C   C67   0.750000  0.750000  0.392891  0.851495
    C   C68   0.234194  0.000616  0.764317  -0.270369
    C   C69   0.262626  0.956339  0.743187  0.352488
    C   C70   0.259438  0.047432  0.742627  0.007320
    C   C71   0.879099  0.053109  0.261659  -0.425927
    C   C72   0.875223  0.978495  0.138160  0.215626
    C   C73   0.818974  0.969614  0.154080  -0.573815
    C   C74   0.811229  0.001123  0.201353  0.232836
    C   C75   0.765806  0.000616  0.235683  -0.270367
    C   C76   0.737374  0.956339  0.256813  0.352485
    C   C77   0.740562  0.047432  0.257373  0.007320
    C   C78   0.879099  0.946891  0.738341  -0.425931
    C   C79   0.875223  0.021505  0.861840  0.215621
    C   C80   0.818974  0.030386  0.845920  -0.573801
    C   C81   0.811229  0.998877  0.798647  0.232802
    C   C82   0.892891  0.750000  0.250000  0.824992
    C   C83   0.765806  0.999384  0.764317  -0.270339
    C   C84   0.737374  0.043661  0.743187  0.352455
    C   C85   0.740562  0.952568  0.742627  0.007357
    C   C86   0.261659  0.120901  0.946891  -0.441232
    C   C87   0.138160  0.124777  0.021505  0.220857
    C   C88   0.154080  0.181026  0.030386  -0.576492
    C   C89   0.201353  0.188771  0.998877  0.240249
    C   C90   0.235683  0.234194  0.999384  -0.280638
    C   C91   0.256813  0.262626  0.043661  0.379955
    C   C92   0.257373  0.259438  0.952568  0.015948
    C   C93   0.738341  0.120901  0.053109  -0.441232
    C   C94   0.750000  0.892891  0.250000  0.845985
    C   C95   0.861840  0.124777  0.978495  0.220853
    C   C96   0.845920  0.181026  0.969614  -0.576487
    C   C97   0.798647  0.188771  0.001123  0.240247
    C   C98   0.764317  0.234194  0.000616  -0.280643
    C   C99   0.743187  0.262626  0.956339  0.379954
    C   C100  0.742627  0.259438  0.047432  0.015953
    C   C101  0.261659  0.879099  0.053109  -0.441234
    C   C102  0.138160  0.875223  0.978495  0.220853
    C   C103  0.154080  0.818974  0.969614  -0.576487
    C   C104  0.201353  0.811229  0.001123  0.240248
    C   C105  0.235683  0.765806  0.000616  -0.280642
    C   C106  0.256813  0.737374  0.956339  0.379954
    C   C107  0.257373  0.740562  0.047432  0.015953
    C   C108  0.750000  0.607109  0.250000  0.822976
    C   C109  0.738341  0.879099  0.946891  -0.441242
    C   C110  0.861840  0.875223  0.021505  0.220850
    C   C111  0.845920  0.818974  0.030386  -0.576474
    C   C112  0.798647  0.811229  0.998877  0.240210
    C   C113  0.764317  0.765806  0.999384  -0.280613
    C   C114  0.743187  0.737374  0.043661  0.379922
    C   C115  0.742627  0.740562  0.952568  0.016001
    C   C116  0.120901  0.446891  0.761659  -0.431429
    C   C117  0.124777  0.521505  0.638160  0.142135
    C   C118  0.181026  0.530386  0.654080  -0.510659
    C   C119  0.188771  0.498877  0.701353  0.198996
    C   C120  0.234194  0.499384  0.735683  -0.275335
    C   C121  0.607109  0.750000  0.250000  0.868828
    C   C122  0.262626  0.543661  0.756813  0.373911
    C   C123  0.259438  0.452568  0.757373  -0.001706
    C   C124  0.120901  0.553109  0.238341  -0.431429
    C   C125  0.124777  0.478495  0.361840  0.142137
    C   C126  0.181026  0.469614  0.345920  -0.510654
    C   C127  0.188771  0.501123  0.298647  0.198992
    C   C128  0.234194  0.500616  0.264317  -0.275337
    C   C129  0.262626  0.456339  0.243187  0.373910
    C   C130  0.259438  0.547432  0.242627  -0.001703
    C   C131  0.879099  0.553109  0.761659  -0.431452
    C   C132  0.875223  0.478495  0.638160  0.142141
    C   C133  0.818974  0.469614  0.654080  -0.510653
    C   C134  0.811229  0.501123  0.701353  0.198982
    C   C135  0.750000  0.750000  0.107109  0.827624
    C   C136  0.765806  0.500616  0.735683  -0.275311
    C   C137  0.737374  0.456339  0.756813  0.373900
    C   C138  0.740562  0.547432  0.757373  -0.001731
    C   C139  0.879099  0.446891  0.238341  -0.431429
    C   C140  0.875223  0.521505  0.361840  0.142135
    C   C141  0.818974  0.530386  0.345920  -0.510653
    C   C142  0.811229  0.498877  0.298647  0.198994
    C   C143  0.765806  0.499384  0.264317  -0.275338
    C   C144  0.737374  0.543661  0.243187  0.373913
    C   C145  0.740562  0.452568  0.242627  -0.001708
    C   C146  0.261659  0.620901  0.446891  -0.425341
    C   C147  0.138160  0.624777  0.521505  0.239174
    C   C148  0.154080  0.681026  0.530386  -0.539440
    C   C149  0.201353  0.688771  0.498877  0.207757
    C   C150  0.235683  0.734194  0.499384  -0.242991
    C   C151  0.256813  0.762626  0.543661  0.345344
    C   C152  0.257373  0.759438  0.452568  -0.011020
    C   C153  0.738341  0.620901  0.553109  -0.425333
    C   C154  0.861840  0.624777  0.478495  0.239176
    C   C155  0.845920  0.681026  0.469614  -0.539438
    C   C156  0.798647  0.688771  0.501123  0.207748
    C   C157  0.764317  0.734194  0.500616  -0.242998
    C   C158  0.743187  0.762626  0.456339  0.345349
    C   C159  0.742627  0.759438  0.547432  -0.011021
    C   C160  0.261659  0.379099  0.553109  -0.425342
    C   C161  0.138160  0.375223  0.478495  0.239174
    C   C162  0.154080  0.318974  0.469614  -0.539440
    C   C163  0.201353  0.311229  0.501123  0.207754
    C   C164  0.250000  0.250000  0.392891  0.851492
    C   C165  0.235683  0.265806  0.500616  -0.242992
    C   C166  0.256813  0.237374  0.456339  0.345341
    C   C167  0.257373  0.240562  0.547432  -0.011016
    C   C168  0.738341  0.379099  0.446891  -0.425344
    C   C169  0.750000  0.250000  0.607109  0.851492
    C   C170  0.861840  0.375223  0.521505  0.239172
    C   C171  0.845920  0.318974  0.530386  -0.539439
    C   C172  0.798647  0.311229  0.498877  0.207754
    C   C173  0.764317  0.265806  0.499384  -0.242992
    C   C174  0.743187  0.237374  0.543661  0.345342
    C   C175  0.742627  0.240562  0.452568  -0.011021
    C   C176  0.446891  0.261659  0.620901  -0.401841
    C   C177  0.521505  0.138160  0.624777  0.187191
    C   C178  0.530386  0.154080  0.681026  -0.499833
    C   C179  0.498877  0.201353  0.688771  0.164029
    C   C180  0.499384  0.235683  0.734194  -0.188435
    C   C181  0.543661  0.256813  0.762626  0.304905
    C   C182  0.452568  0.257373  0.759438  -0.045372
    C   C183  0.892891  0.250000  0.750000  0.824995
    C   C184  0.553109  0.738341  0.620901  -0.401836
    C   C185  0.478495  0.861840  0.624777  0.187195
    C   C186  0.469614  0.845920  0.681026  -0.499833
    C   C187  0.501123  0.798647  0.688771  0.164018
    C   C188  0.500616  0.764317  0.734194  -0.188438
    C   C189  0.456339  0.743187  0.762626  0.304909
    C   C190  0.547432  0.742627  0.759438  -0.045376
    C   C191  0.553109  0.261659  0.379099  -0.401843
    C   C192  0.478495  0.138160  0.375223  0.187194
    C   C193  0.469614  0.154080  0.318974  -0.499834
    C   C194  0.501123  0.201353  0.311229  0.164026
    C   C195  0.500616  0.235683  0.265806  -0.188436
    C   C196  0.750000  0.107109  0.750000  0.845983
    C   C197  0.456339  0.256813  0.237374  0.304902
    C   C198  0.547432  0.257373  0.240562  -0.045367
    C   C199  0.446891  0.738341  0.379099  -0.401842
    C   C200  0.521505  0.861840  0.375223  0.187191
    C   C201  0.530386  0.845920  0.318974  -0.499833
    C   C202  0.498877  0.798647  0.311229  0.164025
    C   C203  0.499384  0.764317  0.265806  -0.188435
    C   C204  0.543661  0.743187  0.237374  0.304903
    C   C205  0.452568  0.742627  0.240562  -0.045373
    C   C206  0.750000  0.392891  0.750000  0.822979
    C   C207  0.607109  0.250000  0.750000  0.868824
    C   C208  0.750000  0.250000  0.892891  0.827623
    C   C209  0.250000  0.750000  0.607109  0.851489
    C   C210  0.107109  0.750000  0.750000  0.824994
    C   C211  0.107109  0.250000  0.250000  0.824995
    C   C212  0.250000  0.892891  0.750000  0.845983
    C   C213  0.250000  0.607109  0.750000  0.822977
    C   C214  0.392891  0.750000  0.750000  0.868831
    C   C215  0.250000  0.750000  0.892891  0.827625
    C   C216  0.250000  0.250000  0.607109  0.764556
    H   H1    0.902535  0.251732  0.126437  0.171246
    H   H2    0.954108  0.300088  0.145225  0.125995
    H   H3    0.959093  0.270135  0.079494  0.170499
    H   H4    0.038610  0.103071  0.103071  0.109484
    H   H5    0.058158  0.130459  0.208243  0.219723
    H   H6    0.951157  0.313782  0.328352  0.270689
    H   H7    0.097465  0.748268  0.126437  0.171246
    H   H8    0.045892  0.699912  0.145225  0.125995
    H   H9    0.040907  0.729865  0.079494  0.170499
    H   H10   0.961390  0.896929  0.103071  0.109486
    H   H11   0.941842  0.869541  0.208243  0.219722
    H   H12   0.048843  0.686218  0.328352  0.270688
    H   H13   0.097465  0.251732  0.873563  0.171247
    H   H14   0.045892  0.300088  0.854775  0.125996
    H   H15   0.040907  0.270135  0.920506  0.170500
    H   H16   0.961390  0.103071  0.896929  0.109485
    H   H17   0.941842  0.130459  0.791757  0.219721
    H   H18   0.048843  0.313782  0.671648  0.270688
    H   H19   0.902535  0.748268  0.873563  0.171226
    H   H20   0.954108  0.699912  0.854775  0.125999
    H   H21   0.959093  0.729865  0.920506  0.170502
    H   H22   0.038610  0.896929  0.896929  0.109483
    H   H23   0.058158  0.869541  0.791757  0.219720
    H   H24   0.951157  0.686218  0.671648  0.270702
    H   H25   0.126437  0.902535  0.251732  0.164839
    H   H26   0.145225  0.954108  0.300088  0.120439
    H   H27   0.079494  0.959093  0.270135  0.167988
    H   H28   0.103071  0.038610  0.103071  0.108008
    H   H29   0.208243  0.058158  0.130459  0.217148
    H   H30   0.328352  0.951157  0.313782  0.270903
    H   H31   0.126437  0.097465  0.748268  0.164839
    H   H32   0.145225  0.045892  0.699912  0.120439
    H   H33   0.079494  0.040907  0.729865  0.167988
    H   H34   0.103071  0.961390  0.896929  0.108010
    H   H35   0.208243  0.941842  0.869541  0.217147
    H   H36   0.328352  0.048843  0.686218  0.270903
    H   H37   0.873563  0.097465  0.251732  0.164840
    H   H38   0.854775  0.045892  0.300088  0.120439
    H   H39   0.920506  0.040907  0.270135  0.167989
    H   H40   0.896929  0.961390  0.103071  0.108009
    H   H41   0.791757  0.941842  0.130459  0.217146
    H   H42   0.671648  0.048843  0.313782  0.270903
    H   H43   0.873563  0.902535  0.748268  0.164816
    H   H44   0.854775  0.954108  0.699912  0.120441
    H   H45   0.920506  0.959093  0.729865  0.167990
    H   H46   0.896929  0.038610  0.896929  0.108008
    H   H47   0.791757  0.058158  0.869541  0.217144
    H   H48   0.671648  0.951157  0.686218  0.270921
    H   H49   0.251732  0.126437  0.902535  0.175093
    H   H50   0.300088  0.145225  0.954108  0.122419
    H   H51   0.270135  0.079494  0.959093  0.170676
    H   H52   0.103071  0.103071  0.038610  0.107679
    H   H53   0.130459  0.208243  0.058158  0.215700
    H   H54   0.313782  0.328352  0.951157  0.271175
    H   H55   0.748268  0.126437  0.097465  0.175093
    H   H56   0.699912  0.145225  0.045892  0.122419
    H   H57   0.729865  0.079494  0.040907  0.170676
    H   H58   0.896929  0.103071  0.961390  0.107681
    H   H59   0.869541  0.208243  0.941842  0.215698
    H   H60   0.686218  0.328352  0.048843  0.271175
    H   H61   0.251732  0.873563  0.097465  0.175094
    H   H62   0.300088  0.854775  0.045892  0.122419
    H   H63   0.270135  0.920506  0.040907  0.170677
    H   H64   0.103071  0.896929  0.961390  0.107681
    H   H65   0.130459  0.791757  0.941842  0.215698
    H   H66   0.313782  0.671648  0.048843  0.271174
    H   H67   0.748268  0.873563  0.902535  0.175072
    H   H68   0.699912  0.854775  0.954108  0.122423
    H   H69   0.729865  0.920506  0.959093  0.170678
    H   H70   0.896929  0.896929  0.038610  0.107679
    H   H71   0.869541  0.791757  0.058158  0.215697
    H   H72   0.686218  0.671648  0.951157  0.271197
    H   H73   0.126437  0.402535  0.751732  0.135069
    H   H74   0.145225  0.454108  0.800088  0.133538
    H   H75   0.079494  0.459093  0.770135  0.170689
    H   H76   0.103071  0.538610  0.603071  0.148554
    H   H77   0.208243  0.558158  0.630459  0.208525
    H   H78   0.328352  0.451157  0.813782  0.269001
    H   H79   0.126437  0.597465  0.248268  0.135068
    H   H80   0.145225  0.545892  0.199912  0.133538
    H   H81   0.079494  0.540907  0.229865  0.170689
    H   H82   0.103071  0.461390  0.396929  0.148554
    H   H83   0.208243  0.441842  0.369541  0.208523
    H   H84   0.328352  0.548843  0.186218  0.269000
    H   H85   0.873563  0.597465  0.751732  0.135092
    H   H86   0.854775  0.545892  0.800088  0.133541
    H   H87   0.920506  0.540907  0.770135  0.170694
    H   H88   0.896929  0.461390  0.603071  0.148553
    H   H89   0.791757  0.441842  0.630459  0.208522
    H   H90   0.671648  0.548843  0.813782  0.268995
    H   H91   0.873563  0.402535  0.248268  0.135068
    H   H92   0.854775  0.454108  0.199912  0.133537
    H   H93   0.920506  0.459093  0.229865  0.170689
    H   H94   0.896929  0.538610  0.396929  0.148554
    H   H95   0.791757  0.558158  0.369541  0.208523
    H   H96   0.671648  0.451157  0.186218  0.268999
    H   H97   0.251732  0.626437  0.402535  0.162439
    H   H98   0.300088  0.645225  0.454108  0.123119
    H   H99   0.270135  0.579494  0.459093  0.168612
    H   H100  0.103071  0.603071  0.538610  0.076877
    H   H101  0.130459  0.708243  0.558158  0.192098
    H   H102  0.313782  0.828352  0.451157  0.270310
    H   H103  0.748268  0.626437  0.597465  0.162434
    H   H104  0.699912  0.645225  0.545892  0.123118
    H   H105  0.729865  0.579494  0.540907  0.168611
    H   H106  0.896929  0.603071  0.461390  0.076876
    H   H107  0.869541  0.708243  0.441842  0.192099
    H   H108  0.686218  0.828352  0.548843  0.270310
    H   H109  0.251732  0.373563  0.597465  0.162441
    H   H110  0.300088  0.354775  0.545892  0.123119
    H   H111  0.270135  0.420506  0.540907  0.168613
    H   H112  0.103071  0.396929  0.461390  0.076876
    H   H113  0.130459  0.291757  0.441842  0.192099
    H   H114  0.313782  0.171648  0.548843  0.270309
    H   H115  0.748268  0.373563  0.402535  0.162439
    H   H116  0.699912  0.354775  0.454108  0.123119
    H   H117  0.729865  0.420506  0.459093  0.168613
    H   H118  0.896929  0.396929  0.538610  0.076877
    H   H119  0.869541  0.291757  0.558158  0.192100
    H   H120  0.686218  0.171648  0.451157  0.270307
    H   H121  0.402535  0.251732  0.626437  0.120863
    H   H122  0.454108  0.300088  0.645225  0.128138
    H   H123  0.459093  0.270135  0.579494  0.167937
    H   H124  0.538610  0.103071  0.603071  0.103136
    H   H125  0.558158  0.130459  0.708243  0.184903
    H   H126  0.451157  0.313782  0.828352  0.263688
    H   H127  0.597465  0.748268  0.626437  0.120857
    H   H128  0.545892  0.699912  0.645225  0.128137
    H   H129  0.540907  0.729865  0.579494  0.167936
    H   H130  0.461390  0.896929  0.603071  0.103135
    H   H131  0.441842  0.869541  0.708243  0.184906
    H   H132  0.548843  0.686218  0.828352  0.263688
    H   H133  0.597465  0.251732  0.373563  0.120862
    H   H134  0.545892  0.300088  0.354775  0.128137
    H   H135  0.540907  0.270135  0.420506  0.167938
    H   H136  0.461390  0.103071  0.396929  0.103135
    H   H137  0.441842  0.130459  0.291757  0.184905
    H   H138  0.548843  0.313782  0.171648  0.263687
    H   H139  0.402535  0.748268  0.373563  0.120862
    H   H140  0.454108  0.699912  0.354775  0.128137
    H   H141  0.459093  0.729865  0.420506  0.167937
    H   H142  0.538610  0.896929  0.396929  0.103136
    H   H143  0.558158  0.869541  0.291757  0.184905
    H   H144  0.451157  0.686218  0.171648  0.263686
    N   N1    0.977668  0.213210  0.139587  0.381081
    N   N2    0.989344  0.174495  0.099792  -0.510416
    N   N3    0.974253  0.289004  0.302578  0.022995
    N   N4    0.027503  0.291166  0.302899  -0.475084
    N   N5    0.022332  0.786790  0.139587  0.381082
    N   N6    0.010656  0.825505  0.099792  -0.510415
    N   N7    0.025747  0.710996  0.302578  0.022993
    N   N8    0.972497  0.708834  0.302899  -0.475084
    N   N9    0.022332  0.213210  0.860413  0.381082
    N   N10   0.010656  0.174495  0.900208  -0.510416
    N   N11   0.025747  0.289004  0.697422  0.022993
    N   N12   0.972497  0.291166  0.697101  -0.475083
    N   N13   0.977668  0.786790  0.860413  0.381105
    N   N14   0.989344  0.825505  0.900208  -0.510414
    N   N15   0.974253  0.710996  0.697422  0.022912
    N   N16   0.027503  0.708834  0.697101  -0.475038
    N   N17   0.139587  0.977668  0.213210  0.392273
    N   N18   0.099792  0.989344  0.174495  -0.511766
    N   N19   0.302578  0.974253  0.289004  0.014921
    N   N20   0.302899  0.027503  0.291166  -0.469034
    N   N21   0.139587  0.022332  0.786790  0.392274
    N   N22   0.099792  0.010656  0.825505  -0.511766
    N   N23   0.302578  0.025747  0.710996  0.014919
    N   N24   0.302899  0.972497  0.708834  -0.469034
    N   N25   0.860413  0.022332  0.213210  0.392274
    N   N26   0.900208  0.010656  0.174495  -0.511766
    N   N27   0.697422  0.025747  0.289004  0.014919
    N   N28   0.697101  0.972497  0.291166  -0.469033
    N   N29   0.860413  0.977668  0.786790  0.392292
    N   N30   0.900208  0.989344  0.825505  -0.511763
    N   N31   0.697422  0.974253  0.710996  0.014834
    N   N32   0.697101  0.027503  0.708834  -0.468989
    N   N33   0.213210  0.139587  0.977668  0.393094
    N   N34   0.174495  0.099792  0.989344  -0.511838
    N   N35   0.289004  0.302578  0.974253  0.011152
    N   N36   0.291166  0.302899  0.027503  -0.493131
    N   N37   0.786790  0.139587  0.022332  0.393095
    N   N38   0.825505  0.099792  0.010656  -0.511837
    N   N39   0.710996  0.302578  0.025747  0.011150
    N   N40   0.708834  0.302899  0.972497  -0.493131
    N   N41   0.213210  0.860413  0.022332  0.393094
    N   N42   0.174495  0.900208  0.010656  -0.511837
    N   N43   0.289004  0.697422  0.025747  0.011150
    N   N44   0.291166  0.697101  0.972497  -0.493131
    N   N45   0.786790  0.860413  0.977668  0.393115
    N   N46   0.825505  0.900208  0.989344  -0.511835
    N   N47   0.710996  0.697422  0.974253  0.011050
    N   N48   0.708834  0.697101  0.027503  -0.493083
    N   N49   0.139587  0.477668  0.713210  0.424971
    N   N50   0.099792  0.489344  0.674495  -0.517765
    N   N51   0.302578  0.474253  0.789004  0.021924
    N   N52   0.302899  0.527503  0.791166  -0.491152
    N   N53   0.139587  0.522332  0.286790  0.424974
    N   N54   0.099792  0.510656  0.325505  -0.517767
    N   N55   0.302578  0.525747  0.210996  0.021923
    N   N56   0.302899  0.472497  0.208834  -0.491152
    N   N57   0.860413  0.522332  0.713210  0.424975
    N   N58   0.900208  0.510656  0.674495  -0.517768
    N   N59   0.697422  0.525747  0.789004  0.021935
    N   N60   0.697101  0.472497  0.791166  -0.491151
    N   N61   0.860413  0.477668  0.286790  0.424975
    N   N62   0.900208  0.489344  0.325505  -0.517767
    N   N63   0.697422  0.474253  0.210996  0.021930
    N   N64   0.697101  0.527503  0.208834  -0.491155
    N   N65   0.213210  0.639587  0.477668  0.384352
    N   N66   0.174495  0.599792  0.489344  -0.521192
    N   N67   0.289004  0.802578  0.474253  0.026620
    N   N68   0.291166  0.802899  0.527503  -0.471865
    N   N69   0.786790  0.639587  0.522332  0.384355
    N   N70   0.825505  0.599792  0.510656  -0.521194
    N   N71   0.710996  0.802578  0.525747  0.026629
    N   N72   0.708834  0.802899  0.472497  -0.471872
    N   N73   0.213210  0.360413  0.522332  0.384353
    N   N74   0.174495  0.400208  0.510656  -0.521192
    N   N75   0.289004  0.197422  0.525747  0.026619
    N   N76   0.291166  0.197101  0.472497  -0.471864
    N   N77   0.786790  0.360413  0.477668  0.384358
    N   N78   0.825505  0.400208  0.489344  -0.521192
    N   N79   0.710996  0.197422  0.474253  0.026626
    N   N80   0.708834  0.197101  0.527503  -0.471866
    N   N81   0.477668  0.213210  0.639587  0.401425
    N   N82   0.489344  0.174495  0.599792  -0.517482
    N   N83   0.474253  0.289004  0.802578  0.051007
    N   N84   0.527503  0.291166  0.802899  -0.486712
    N   N85   0.522332  0.786790  0.639587  0.401431
    N   N86   0.510656  0.825505  0.599792  -0.517486
    N   N87   0.525747  0.710996  0.802578  0.051017
    N   N88   0.472497  0.708834  0.802899  -0.486719
    N   N89   0.522332  0.213210  0.360413  0.401427
    N   N90   0.510656  0.174495  0.400208  -0.517485
    N   N91   0.525747  0.289004  0.197422  0.051006
    N   N92   0.472497  0.291166  0.197101  -0.486711
    N   N93   0.477668  0.786790  0.360413  0.401430
    N   N94   0.489344  0.825505  0.400208  -0.517484
    N   N95   0.474253  0.710996  0.197422  0.051013
    N   N96   0.527503  0.708834  0.197101  -0.486713
    O   O1    0.132322  0.280879  0.219121  -0.834045
    O   O2    0.219121  0.132322  0.719121  -0.747412
    O   O3    0.280879  0.132322  0.780879  -0.740569
    O   O4    0.132322  0.219121  0.719121  -0.720863
    O   O5    0.132322  0.280879  0.780879  -0.722099
    O   O6    0.367678  0.280879  0.719121  -0.767118
    O   O7    0.367678  0.219121  0.780879  -0.762139
    O   O8    0.280879  0.367678  0.719121  -0.762113
    O   O9    0.219121  0.367678  0.780879  -0.763693
    O   O10   0.280879  0.219121  0.867678  -0.764895
    O   O11   0.219121  0.280879  0.867678  -0.763992
    O   O12   0.750000  0.750000  0.750000  -1.887269
    O   O13   0.219121  0.132322  0.280879  -0.821974
    O   O14   0.780879  0.780879  0.632322  -0.740644
    O   O15   0.719121  0.719121  0.632322  -0.724032
    O   O16   0.780879  0.867678  0.719121  -0.747377
    O   O17   0.719121  0.867678  0.780879  -0.740467
    O   O18   0.867678  0.780879  0.719121  -0.720761
    O   O19   0.867678  0.719121  0.780879  -0.722084
    O   O20   0.280879  0.132322  0.219121  -0.796510
    O   O21   0.632322  0.719121  0.719121  -0.767116
    O   O22   0.632322  0.780879  0.780879  -0.762129
    O   O23   0.719121  0.632322  0.719121  -0.762112
    O   O24   0.780879  0.632322  0.780879  -0.763703
    O   O25   0.719121  0.780879  0.867678  -0.764859
    O   O26   0.780879  0.719121  0.867678  -0.763872
    O   O27   0.250000  0.750000  0.250000  -1.887404
    O   O28   0.219121  0.780879  0.367678  -0.740651
    O   O29   0.280879  0.719121  0.367678  -0.724037
    O   O30   0.219121  0.867678  0.280879  -0.747410
    O   O31   0.280879  0.867678  0.219121  -0.740568
    O   O32   0.280879  0.367678  0.280879  -0.786194
    O   O33   0.132322  0.780879  0.280879  -0.720863
    O   O34   0.132322  0.719121  0.219121  -0.722099
    O   O35   0.367678  0.719121  0.280879  -0.767116
    O   O36   0.367678  0.780879  0.219121  -0.762139
    O   O37   0.280879  0.632322  0.280879  -0.762114
    O   O38   0.219121  0.632322  0.219121  -0.763695
    O   O39   0.280879  0.780879  0.132322  -0.764895
    O   O40   0.219121  0.367678  0.219121  -0.801969
    O   O41   0.219121  0.719121  0.132322  -0.763993
    O   O42   0.750000  0.250000  0.250000  -1.887404
    O   O43   0.780879  0.219121  0.367678  -0.740651
    O   O44   0.719121  0.280879  0.367678  -0.724036
    O   O45   0.780879  0.132322  0.280879  -0.747411
    O   O46   0.719121  0.132322  0.219121  -0.740569
    O   O47   0.867678  0.219121  0.280879  -0.720862
    O   O48   0.867678  0.280879  0.219121  -0.722097
    O   O49   0.632322  0.280879  0.280879  -0.767118
    O   O50   0.632322  0.219121  0.219121  -0.762141
    O   O51   0.719121  0.367678  0.280879  -0.762112
    O   O52   0.367678  0.280879  0.280879  -0.813795
    O   O53   0.780879  0.367678  0.219121  -0.763691
    O   O54   0.719121  0.219121  0.132322  -0.764897
    O   O55   0.780879  0.280879  0.132322  -0.763993
    O   O56   0.367678  0.219121  0.219121  -0.763911
    O   O57   0.219121  0.280879  0.132322  -0.782091
    O   O58   0.280879  0.219121  0.132322  -0.820672
    O   O59   0.750000  0.750000  0.250000  -1.983126
    O   O60   0.780879  0.780879  0.367678  -0.768504
    O   O61   0.719121  0.719121  0.367678  -0.838117
    O   O62   0.867678  0.780879  0.280879  -0.792668
    O   O63   0.867678  0.719121  0.219121  -0.834041
    O   O64   0.780879  0.867678  0.280879  -0.821974
    O   O65   0.719121  0.867678  0.219121  -0.796508
    O   O66   0.719121  0.632322  0.280879  -0.786195
    O   O67   0.780879  0.632322  0.219121  -0.801971
    O   O68   0.250000  0.250000  0.250000  -1.983127
    O   O69   0.632322  0.719121  0.280879  -0.813794
    O   O70   0.632322  0.780879  0.219121  -0.763912
    O   O71   0.780879  0.719121  0.132322  -0.782092
    O   O72   0.719121  0.780879  0.132322  -0.820666
    O   O73   0.750000  0.250000  0.750000  -1.983125
    O   O74   0.780879  0.219121  0.632322  -0.768503
    O   O75   0.719121  0.280879  0.632322  -0.838116
    O   O76   0.867678  0.219121  0.719121  -0.792667
    O   O77   0.867678  0.280879  0.780879  -0.834044
    O   O78   0.780879  0.132322  0.719121  -0.821968
    O   O79   0.719121  0.132322  0.780879  -0.796509
    O   O80   0.219121  0.219121  0.367678  -0.768502
    O   O81   0.719121  0.367678  0.719121  -0.786195
    O   O82   0.780879  0.367678  0.780879  -0.801969
    O   O83   0.632322  0.280879  0.719121  -0.813794
    O   O84   0.632322  0.219121  0.780879  -0.763911
    O   O85   0.780879  0.280879  0.867678  -0.782091
    O   O86   0.719121  0.219121  0.867678  -0.820669
    O   O87   0.280879  0.280879  0.367678  -0.838116
    O   O88   0.250000  0.750000  0.750000  -1.983126
    O   O89   0.219121  0.780879  0.632322  -0.768502
    O   O90   0.280879  0.719121  0.632322  -0.838115
    O   O91   0.132322  0.780879  0.719121  -0.792667
    O   O92   0.132322  0.719121  0.780879  -0.834039
    O   O93   0.219121  0.867678  0.719121  -0.821971
    O   O94   0.280879  0.867678  0.780879  -0.796509
    O   O95   0.280879  0.632322  0.719121  -0.786195
    O   O96   0.219121  0.632322  0.780879  -0.801970
    O   O97   0.367678  0.719121  0.719121  -0.813796
    O   O98   0.367678  0.780879  0.780879  -0.763913
    O   O99   0.132322  0.219121  0.280879  -0.792669
    O   O100  0.219121  0.719121  0.867678  -0.782090
    O   O101  0.280879  0.780879  0.867678  -0.820672
    O   O102  0.250000  0.250000  0.750000  -1.887405
    O   O103  0.219121  0.219121  0.632322  -0.740653
    O   O104  0.280879  0.280879  0.632322  -0.724039
    Zn  Zn1   0.205473  0.205473  0.294527  1.632750
    Zn  Zn2   0.294527  0.294527  0.294527  1.658453
    Zn  Zn3   0.794527  0.794527  0.705473  1.537820
    Zn  Zn4   0.705473  0.705473  0.705473  1.544912
    Zn  Zn5   0.705473  0.794527  0.794527  1.563169
    Zn  Zn6   0.794527  0.705473  0.794527  1.555924
    Zn  Zn7   0.205473  0.794527  0.294527  1.537943
    Zn  Zn8   0.294527  0.705473  0.294527  1.544926
    Zn  Zn9   0.294527  0.794527  0.205473  1.563295
    Zn  Zn10  0.205473  0.705473  0.205473  1.556046
    Zn  Zn11  0.794527  0.205473  0.294527  1.537943
    Zn  Zn12  0.705473  0.294527  0.294527  1.544925
    Zn  Zn13  0.705473  0.205473  0.205473  1.563297
    Zn  Zn14  0.794527  0.294527  0.205473  1.556043
    Zn  Zn15  0.205473  0.294527  0.205473  1.665258
    Zn  Zn16  0.794527  0.794527  0.294527  1.632749
    Zn  Zn17  0.705473  0.705473  0.294527  1.658454
    Zn  Zn18  0.794527  0.705473  0.205473  1.665257
    Zn  Zn19  0.705473  0.794527  0.205473  1.629296
    Zn  Zn20  0.294527  0.205473  0.205473  1.629300
    Zn  Zn21  0.794527  0.205473  0.705473  1.632746
    Zn  Zn22  0.705473  0.294527  0.705473  1.658453
    Zn  Zn23  0.794527  0.294527  0.794527  1.665255
    Zn  Zn24  0.705473  0.205473  0.794527  1.629298
    Zn  Zn25  0.205473  0.794527  0.705473  1.632748
    Zn  Zn26  0.294527  0.705473  0.705473  1.658453
    Zn  Zn27  0.205473  0.705473  0.794527  1.665254
    Zn  Zn28  0.294527  0.794527  0.794527  1.629299
    Zn  Zn29  0.205473  0.205473  0.705473  1.537945
    Zn  Zn30  0.294527  0.294527  0.705473  1.544928
    Zn  Zn31  0.294527  0.205473  0.794527  1.563295
    Zn  Zn32  0.205473  0.294527  0.794527  1.556045
