# Generated by REPEAT Assigner based on pymatgen
data_DB13-dia-Syn021047
_audit_creation_date              2022-05-24
_audit_creation_method            REPEAT_Assigner
_cell_length_a                    30.089400
_cell_length_b                    30.089400
_cell_length_c                    31.320400
_cell_angle_alpha                 90.000000
_cell_angle_beta                  90.000000
_cell_angle_gamma                 90.000000
_cell_volume                      28356.612950
_symmetry_space_group_name_H-M    P1
_symmetry_Int_Tables_number       1
loop_
    _symmetry_equiv_pos_site_id
    _symmetry_equiv_pos_as_xyz
    1  x,y,z
loop_
    _atom_site_type_symbol
    _atom_site_label
    _atom_site_fract_x
    _atom_site_fract_y
    _atom_site_fract_z
    _atom_type_partial_charge
    C  C1    0.943111  0.442939  0.445347  0.685942
    C  C2    0.943283  0.306631  0.304654  0.884962
    C  C3    0.806803  0.443111  0.304653  0.871376
    C  C4    0.193197  0.056716  0.195347  0.915969
    C  C5    0.943111  0.943111  0.945347  0.805778
    C  C6    0.806975  0.806975  0.945347  0.632950
    C  C7    0.806803  0.943283  0.804654  0.884130
    C  C8    0.943284  0.806803  0.804653  0.736450
    C  C9    0.306632  0.442767  0.804652  0.615360
    C  C10   0.442767  0.306632  0.804652  0.913516
    C  C11   0.442939  0.442939  0.945345  0.630584
    C  C12   0.306459  0.306459  0.945346  0.925788
    C  C13   0.443111  0.806803  0.304653  0.814556
    C  C14   0.306975  0.942939  0.304653  0.636502
    C  C15   0.306803  0.806631  0.445346  0.876866
    C  C16   0.443284  0.943111  0.445347  0.728443
    C  C17   0.965700  0.016836  0.088350  -0.546634
    C  C18   0.951242  0.978579  0.113956  0.724066
    C  C19   0.927228  0.024961  0.167480  0.167152
    C  C20   0.941088  0.062674  0.145088  -0.058836
    C  C21   0.960069  0.059078  0.106575  0.113716
    C  C22   0.932052  0.107956  0.164771  -0.234644
    C  C23   0.953181  0.933247  0.099132  -0.469623
    C  C24   0.056889  0.056889  0.054653  0.897335
    C  C25   0.023443  0.997554  0.907942  0.241664
    C  C26   0.068751  0.990320  0.898616  -0.259424
    C  C27   0.085143  0.989824  0.857210  -0.185023
    C  C28   0.056736  0.995810  0.822865  -0.036130
    C  C29   0.010942  0.999917  0.832029  -0.208322
    C  C30   0.993255  0.003301  0.874431  -0.097859
    C  C31   0.133530  0.985457  0.850594  0.618898
    C  C32   0.033239  0.025513  0.981303  -0.102972
    C  C33   0.008482  0.999950  0.951938  0.002698
    C  C34   0.972680  0.978810  0.969080  -0.068821
    C  C35   0.959699  0.988052  0.011442  -0.242567
    C  C36   0.981966  0.013243  0.042190  0.424362
    C  C37   0.022287  0.032416  0.024865  -0.309695
    C  C38   0.784387  0.233078  0.588350  -0.505691
    C  C39   0.798844  0.271335  0.613956  0.704578
    C  C40   0.822858  0.224952  0.667480  0.150987
    C  C41   0.808998  0.187240  0.645088  -0.050882
    C  C42   0.790017  0.190836  0.606575  0.101191
    C  C43   0.818035  0.141958  0.664771  -0.216667
    C  C44   0.796906  0.316667  0.599132  -0.476524
    C  C45   0.726643  0.252360  0.407942  0.024840
    C  C46   0.681336  0.259593  0.398616  -0.069097
    C  C47   0.664943  0.260090  0.357210  -0.066036
    C  C48   0.693350  0.254103  0.322865  -0.117223
    C  C49   0.739144  0.249997  0.332029  -0.212738
    C  C50   0.756832  0.246613  0.374431  -0.090739
    C  C51   0.616556  0.264457  0.350594  0.515373
    C  C52   0.693197  0.193025  0.554653  0.870512
    C  C53   0.716847  0.224401  0.481303  -0.187843
    C  C54   0.741604  0.249964  0.451938  0.180603
    C  C55   0.777406  0.271104  0.469080  -0.137248
    C  C56   0.790387  0.261862  0.511442  -0.213562
    C  C57   0.768120  0.236671  0.542190  0.351989
    C  C58   0.727799  0.217498  0.524865  -0.229933
    C  C59   0.284043  0.516493  0.661649  -0.529908
    C  C60   0.298500  0.478236  0.636043  0.713829
    C  C61   0.322514  0.524618  0.582519  0.163949
    C  C62   0.308655  0.562330  0.604910  -0.058556
    C  C63   0.289673  0.558735  0.643424  0.108910
    C  C64   0.317691  0.607612  0.585228  -0.218185
    C  C65   0.296562  0.432904  0.650867  -0.434180
    C  C66   0.226300  0.497210  0.842057  0.037369
    C  C67   0.180992  0.489977  0.851383  -0.081069
    C  C68   0.557061  0.056889  0.554653  0.860983
    C  C69   0.164599  0.489480  0.892788  -0.077370
    C  C70   0.193007  0.495467  0.927133  -0.110572
    C  C71   0.238801  0.499573  0.917970  -0.217458
    C  C72   0.256488  0.502957  0.875568  -0.063979
    C  C73   0.116212  0.485113  0.899404  0.525163
    C  C74   0.216503  0.525169  0.768695  -0.186958
    C  C75   0.241260  0.499607  0.798061  0.158924
    C  C76   0.277063  0.478466  0.780918  -0.077852
    C  C77   0.290043  0.487708  0.738557  -0.241159
    C  C78   0.267776  0.512899  0.707809  0.372027
    C  C79   0.227455  0.532072  0.725134  -0.248462
    C  C80   0.465700  0.733078  0.161650  -0.401127
    C  C81   0.451242  0.771335  0.136044  0.722774
    C  C82   0.427228  0.724952  0.082520  0.259641
    C  C83   0.441088  0.687240  0.104912  -0.016840
    C  C84   0.460069  0.690836  0.143425  -0.200388
    C  C85   0.432052  0.641958  0.085229  -0.627523
    C  C86   0.453181  0.816667  0.150868  -0.500354
    C  C87   0.693369  0.056717  0.695346  0.681555
    C  C88   0.523443  0.752360  0.342058  0.229810
    C  C89   0.568751  0.759593  0.351384  -0.249497
    C  C90   0.585143  0.760090  0.392790  -0.190052
    C  C91   0.556736  0.754103  0.427135  -0.031672
    C  C92   0.510942  0.749997  0.417971  -0.212882
    C  C93   0.493255  0.746613  0.375569  -0.091384
    C  C94   0.633530  0.764457  0.399406  0.621389
    C  C95   0.533239  0.724401  0.268697  -0.076561
    C  C96   0.508482  0.749964  0.298062  -0.003159
    C  C97   0.472680  0.771104  0.280920  -0.065890
    C  C98   0.459699  0.761862  0.238558  -0.205851
    C  C99   0.481966  0.736671  0.207810  0.338252
    C  C100  0.522287  0.717498  0.225135  -0.323707
    C  C101  0.556889  0.193197  0.695347  0.675831
    C  C102  0.215614  0.766578  0.411650  -0.470399
    C  C103  0.201157  0.728321  0.386043  0.686692
    C  C104  0.177143  0.774703  0.332520  0.171901
    C  C105  0.191002  0.812416  0.354911  -0.033210
    C  C106  0.209984  0.808820  0.393425  0.045438
    C  C107  0.181966  0.857698  0.335229  -0.219929
    C  C108  0.203095  0.682989  0.400867  -0.422567
    C  C109  0.273357  0.747296  0.592058  0.140083
    C  C110  0.318665  0.740062  0.601383  -0.132969
    C  C111  0.335058  0.739565  0.642789  -0.039351
    C  C112  0.306650  0.745552  0.677134  -0.136676
    C  C113  0.260856  0.749659  0.667971  -0.182018
    C  C114  0.243169  0.753043  0.625569  -0.165868
    C  C115  0.383445  0.735198  0.649405  0.514429
    C  C116  0.283154  0.775255  0.518696  -0.183917
    C  C117  0.258397  0.749692  0.548061  0.106973
    C  C118  0.222594  0.728551  0.530919  -0.062060
    C  C119  0.209614  0.737794  0.488557  -0.238640
    C  C120  0.231881  0.762985  0.457809  0.341645
    C  C121  0.272202  0.782158  0.475134  -0.204140
    C  C122  0.715613  0.483164  0.338350  -0.491000
    C  C123  0.701156  0.521421  0.363956  0.706470
    C  C124  0.677142  0.475039  0.417480  0.163689
    C  C125  0.691002  0.437326  0.395088  -0.032502
    C  C126  0.709983  0.440922  0.356575  0.048807
    C  C127  0.681965  0.392044  0.414771  -0.217529
    C  C128  0.703094  0.566753  0.349132  -0.446987
    C  C129  0.773357  0.502446  0.157942  0.049735
    C  C130  0.818664  0.509680  0.148616  -0.076512
    C  C131  0.835057  0.510176  0.107210  -0.076537
    C  C132  0.806650  0.504190  0.072865  -0.110294
    C  C133  0.760856  0.500083  0.082029  -0.213148
    C  C134  0.743168  0.496699  0.124431  -0.095928
    C  C135  0.883444  0.514543  0.100594  0.514501
    C  C136  0.783153  0.474487  0.231303  -0.194683
    C  C137  0.758396  0.500050  0.201938  0.160619
    C  C138  0.722594  0.521190  0.219080  -0.110004
    C  C139  0.709613  0.511948  0.261442  -0.232063
    C  C140  0.731880  0.486757  0.292190  0.344673
    C  C141  0.772201  0.467584  0.274865  -0.200922
    C  C142  0.534300  0.266922  0.838350  -0.534131
    C  C143  0.548758  0.228665  0.863956  0.720443
    C  C144  0.572772  0.275048  0.917480  0.158739
    C  C145  0.558912  0.312760  0.895088  -0.042007
    C  C146  0.539931  0.309164  0.856575  0.100786
    C  C147  0.567948  0.358042  0.914771  -0.254565
    C  C148  0.546819  0.183333  0.849132  -0.469543
    C  C149  0.476557  0.247640  0.657942  0.113346
    C  C150  0.431249  0.240407  0.648616  -0.117097
    C  C151  0.414857  0.239910  0.607210  -0.032935
    C  C152  0.443264  0.245897  0.572865  -0.137068
    C  C153  0.489058  0.250003  0.582029  -0.190210
    C  C154  0.506745  0.253387  0.624431  -0.157445
    C  C155  0.366470  0.235543  0.600594  0.506715
    C  C156  0.466761  0.275599  0.731303  -0.148585
    C  C157  0.491518  0.250036  0.701938  0.124314
    C  C158  0.527320  0.228896  0.719080  -0.090102
    C  C159  0.540301  0.238138  0.761442  -0.225792
    C  C160  0.518034  0.263329  0.792190  0.390477
    C  C161  0.477713  0.282502  0.774865  -0.291846
    C  C162  0.965356  0.516320  0.588348  -0.346592
    C  C163  0.950899  0.478063  0.613955  0.713011
    C  C164  0.926885  0.524445  0.667479  0.267130
    C  C165  0.940744  0.562158  0.645087  0.007971
    C  C166  0.959726  0.558562  0.606573  -0.289967
    C  C167  0.931708  0.607440  0.664769  -0.642195
    C  C168  0.952837  0.432731  0.599131  -0.505276
    C  C169  0.023099  0.497038  0.407940  0.010140
    C  C170  0.068407  0.489804  0.398615  -0.045979
    C  C171  0.084800  0.489307  0.357209  -0.074559
    C  C172  0.056392  0.495294  0.322864  -0.111714
    C  C173  0.010598  0.499401  0.332027  -0.211932
    C  C174  0.992911  0.502785  0.374429  -0.083502
    C  C175  0.133187  0.484940  0.350593  0.516497
    C  C176  0.193025  0.193025  0.054653  0.616074
    C  C177  0.192854  0.556545  0.695346  0.892932
    C  C178  0.032896  0.524997  0.481302  -0.148726
    C  C179  0.008139  0.499434  0.451937  0.180513
    C  C180  0.972336  0.478293  0.469079  -0.151153
    C  C181  0.959356  0.487535  0.511441  -0.161077
    C  C182  0.981623  0.512727  0.542189  0.255500
    C  C183  0.021944  0.531900  0.524864  -0.254606
    C  C184  0.784387  0.733250  0.088350  -0.480142
    C  C185  0.798844  0.771507  0.113956  0.700120
    C  C186  0.822858  0.725125  0.167480  0.165353
    C  C187  0.808998  0.687412  0.145088  -0.027401
    C  C188  0.790017  0.691008  0.106575  0.034990
    C  C189  0.818035  0.642130  0.164771  -0.231502
    C  C190  0.796906  0.816839  0.099132  -0.471510
    C  C191  0.726643  0.752532  0.907942  0.020664
    C  C192  0.681336  0.759766  0.898616  -0.067625
    C  C193  0.056718  0.692681  0.695346  0.845387
    C  C194  0.664943  0.760263  0.857210  -0.080377
    C  C195  0.693350  0.754276  0.822865  -0.110212
    C  C196  0.739144  0.750170  0.832029  -0.218034
    C  C197  0.756832  0.746785  0.874431  -0.061827
    C  C198  0.616556  0.764630  0.850594  0.527361
    C  C199  0.716847  0.724573  0.981303  -0.198679
    C  C200  0.741604  0.750136  0.951938  0.173758
    C  C201  0.777406  0.771277  0.969080  -0.103836
    C  C202  0.790387  0.762035  0.011442  -0.218094
    C  C203  0.768120  0.736843  0.042190  0.336210
    C  C204  0.727799  0.717670  0.024865  -0.212053
    C  C205  0.284387  0.016664  0.161650  -0.498498
    C  C206  0.298844  0.978407  0.136044  0.708856
    C  C207  0.322858  0.024789  0.082520  0.168555
    C  C208  0.308998  0.062502  0.104912  -0.029884
    C  C209  0.290017  0.058906  0.143425  0.044193
    C  C210  0.318035  0.107784  0.085229  -0.227343
    C  C211  0.296906  0.933075  0.150868  -0.471500
    C  C212  0.193025  0.692853  0.554652  0.657150
    C  C213  0.226643  0.997381  0.342058  0.015158
    C  C214  0.181336  0.990148  0.351384  -0.064834
    C  C215  0.164943  0.989651  0.392790  -0.080869
    C  C216  0.193350  0.995638  0.427135  -0.109661
    C  C217  0.239144  0.999744  0.417971  -0.214975
    C  C218  0.256832  0.003129  0.375569  -0.057560
    C  C219  0.116556  0.985284  0.399406  0.537308
    C  C220  0.216847  0.025340  0.268697  -0.176692
    C  C221  0.241604  0.999778  0.298062  0.169333
    C  C222  0.277406  0.978637  0.280920  -0.105348
    C  C223  0.290387  0.987879  0.238558  -0.220067
    C  C224  0.268120  0.013071  0.207810  0.358918
    C  C225  0.227799  0.032243  0.225135  -0.245233
    C  C226  0.056545  0.556373  0.554652  0.920412
    C  C227  0.215613  0.266750  0.911650  -0.520235
    C  C228  0.201156  0.228493  0.886044  0.725609
    C  C229  0.177142  0.274875  0.832520  0.170805
    C  C230  0.191002  0.312588  0.854912  -0.034932
    C  C231  0.209983  0.308992  0.893425  0.053984
    C  C232  0.181965  0.357870  0.835229  -0.225336
    C  C233  0.203094  0.183161  0.900868  -0.452382
    C  C234  0.273357  0.247468  0.092058  0.032725
    C  C235  0.318664  0.240234  0.101384  -0.072505
    C  C236  0.335057  0.239737  0.142790  -0.088553
    C  C237  0.306650  0.245724  0.177135  -0.103691
    C  C238  0.260856  0.249830  0.167971  -0.214617
    C  C239  0.243168  0.253215  0.125569  -0.059969
    C  C240  0.383444  0.235370  0.149406  0.533539
    C  C241  0.283153  0.275427  0.018697  -0.173627
    C  C242  0.258396  0.249864  0.048062  0.163750
    C  C243  0.222594  0.228723  0.030920  -0.094485
    C  C244  0.209613  0.237965  0.988558  -0.240030
    C  C245  0.231880  0.263157  0.957810  0.375528
    C  C246  0.272201  0.282330  0.975135  -0.252092
    C  C247  0.715958  0.982992  0.838349  -0.467070
    C  C248  0.701500  0.021249  0.863956  0.693127
    C  C249  0.677486  0.974867  0.917479  0.164312
    C  C250  0.691346  0.937154  0.895088  -0.027882
    C  C251  0.710327  0.940750  0.856574  0.039881
    C  C252  0.682310  0.891872  0.914770  -0.225020
    C  C253  0.703439  0.066581  0.849131  -0.466451
    C  C254  0.773701  0.002274  0.657941  0.127674
    C  C255  0.819009  0.009508  0.648616  -0.128751
    C  C256  0.835401  0.010005  0.607210  -0.037083
    C  C257  0.806994  0.004018  0.572865  -0.136529
    C  C258  0.761200  0.999912  0.582028  -0.183273
    C  C259  0.743513  0.996527  0.624430  -0.162513
    C  C260  0.883788  0.014372  0.600594  0.511483
    C  C261  0.783497  0.974315  0.731303  -0.185908
    C  C262  0.758740  0.999878  0.701938  0.124311
    C  C263  0.722938  0.021019  0.719080  -0.089702
    C  C264  0.709957  0.011777  0.761442  -0.223158
    C  C265  0.732224  0.986585  0.792190  0.333953
    C  C266  0.772545  0.967412  0.774865  -0.203749
    C  C267  0.465872  0.016836  0.588350  -0.533327
    C  C268  0.451415  0.978579  0.613956  0.707408
    C  C269  0.427401  0.024961  0.667480  0.167575
    C  C270  0.441260  0.062674  0.645088  -0.069294
    C  C271  0.460242  0.059078  0.606575  0.123793
    C  C272  0.432224  0.107956  0.664771  -0.197088
    C  C273  0.453353  0.933247  0.599132  -0.414204
    C  C274  0.523615  0.997554  0.407942  0.334146
    C  C275  0.568923  0.990320  0.398616  -0.309369
    C  C276  0.585316  0.989824  0.357210  -0.170528
    C  C277  0.556908  0.995810  0.322865  -0.055021
    C  C278  0.511115  0.999917  0.332029  -0.186944
    C  C279  0.493427  0.003301  0.374431  -0.148665
    C  C280  0.633703  0.985457  0.350594  0.626958
    C  C281  0.533412  0.025513  0.481303  -0.130446
    C  C282  0.508655  0.999950  0.451938  -0.057993
    C  C283  0.472853  0.978810  0.469080  0.037617
    C  C284  0.459872  0.988052  0.511442  -0.283667
    C  C285  0.482139  0.013243  0.542190  0.404187
    C  C286  0.522460  0.032416  0.524865  -0.259910
    C  C287  0.965528  0.732734  0.661649  -0.383377
    C  C288  0.951071  0.770991  0.636043  0.706539
    C  C289  0.927057  0.724609  0.582519  0.265209
    C  C290  0.940917  0.686896  0.604910  -0.034462
    C  C291  0.959898  0.690492  0.643424  -0.188523
    C  C292  0.931880  0.641614  0.585228  -0.598012
    C  C293  0.953009  0.816323  0.650867  -0.446455
    C  C294  0.023272  0.752016  0.842057  0.312382
    C  C295  0.068579  0.759250  0.851383  -0.292831
    C  C296  0.084972  0.759747  0.892788  -0.180841
    C  C297  0.056565  0.753760  0.927133  -0.049331
    C  C298  0.010771  0.749653  0.917970  -0.193614
    C  C299  0.993083  0.746269  0.875568  -0.133702
    C  C300  0.133359  0.764114  0.899404  0.633573
    C  C301  0.556889  0.693025  0.195347  0.883516
    C  C302  0.033068  0.724057  0.768695  -0.110536
    C  C303  0.008311  0.749620  0.798061  -0.054567
    C  C304  0.972509  0.770761  0.780918  0.033243
    C  C305  0.959528  0.761519  0.738557  -0.237399
    C  C306  0.981795  0.736327  0.707809  0.305337
    C  C307  0.022116  0.717154  0.725134  -0.266380
    C  C308  0.034129  0.266922  0.338349  -0.489056
    C  C309  0.048586  0.228665  0.363956  0.693154
    C  C310  0.072600  0.275047  0.417479  0.163989
    C  C311  0.058740  0.312760  0.395088  -0.024574
    C  C312  0.039759  0.309164  0.356574  0.049292
    C  C313  0.067777  0.358042  0.414770  -0.217738
    C  C314  0.046648  0.183333  0.349131  -0.419161
    C  C315  0.976385  0.247639  0.157941  0.129931
    C  C316  0.931078  0.240406  0.148616  -0.137381
    C  C317  0.693025  0.556889  0.195347  0.646588
    C  C318  0.914685  0.239909  0.107210  -0.050064
    C  C319  0.943092  0.245896  0.072865  -0.129144
    C  C320  0.988886  0.250002  0.082028  -0.193015
    C  C321  0.006574  0.253387  0.124430  -0.134011
    C  C322  0.866298  0.235542  0.100594  0.517102
    C  C323  0.966589  0.275598  0.231303  -0.201495
    C  C324  0.991346  0.250036  0.201938  0.117463
    C  C325  0.027148  0.228895  0.219080  -0.047199
    C  C326  0.040129  0.238137  0.261442  -0.243181
    C  C327  0.017862  0.263329  0.292190  0.342668
    C  C328  0.977541  0.282501  0.274865  -0.200842
    C  C329  0.465528  0.516664  0.088350  -0.330408
    C  C330  0.451071  0.478407  0.113957  0.695720
    C  C331  0.427057  0.524790  0.167480  0.270133
    C  C332  0.440916  0.562502  0.145089  -0.003007
    C  C333  0.459897  0.558906  0.106575  -0.277940
    C  C334  0.431880  0.607784  0.164771  -0.612570
    C  C335  0.453009  0.433075  0.099133  -0.452264
    C  C336  0.056717  0.193197  0.195346  0.625581
    C  C337  0.556717  0.556717  0.054654  0.880448
    C  C338  0.523271  0.497382  0.907942  0.116579
    C  C339  0.568579  0.490149  0.898617  -0.123763
    C  C340  0.584972  0.489652  0.857211  -0.058207
    C  C341  0.556564  0.495639  0.822866  -0.125451
    C  C342  0.510770  0.499745  0.832029  -0.197434
    C  C343  0.493083  0.503129  0.874431  -0.125336
    C  C344  0.633358  0.485285  0.850595  0.526509
    C  C345  0.533067  0.525341  0.981304  -0.175632
    C  C346  0.508310  0.499778  0.951939  0.112620
    C  C347  0.472508  0.478638  0.969081  -0.044570
    C  C348  0.459528  0.487880  0.011443  -0.196747
    C  C349  0.481795  0.513071  0.042191  0.232652
    C  C350  0.522116  0.532244  0.024866  -0.208388
    C  C351  0.693197  0.693197  0.054653  0.896854
    C  C352  0.806975  0.306803  0.445347  0.674689
    H  H1    0.834894  0.334720  0.322906  0.359319
    H  H2    0.915194  0.415020  0.322906  0.360951
    H  H3    0.921403  0.328511  0.426732  0.324090
    H  H4    0.828683  0.421231  0.426733  0.327393
    H  H5    0.915193  0.915194  0.822906  0.378484
    H  H6    0.834892  0.834894  0.822906  0.371577
    H  H7    0.828683  0.921403  0.926732  0.346661
    H  H8    0.921403  0.828683  0.926733  0.330280
    H  H9    0.334550  0.414850  0.927093  0.356670
    H  H10   0.414850  0.334550  0.927093  0.394462
    H  H11   0.421059  0.421059  0.823267  0.303404
    H  H12   0.328339  0.328339  0.823266  0.334741
    H  H13   0.415193  0.834720  0.427094  0.378453
    H  H14   0.334892  0.915020  0.427094  0.372147
    H  H15   0.328683  0.828511  0.323268  0.345640
    H  H16   0.421403  0.921231  0.323267  0.329606
    H  H17   0.084806  0.084807  0.177094  0.393973
    H  H18   0.905997  0.024593  0.195684  0.083436
    H  H19   0.969049  0.087138  0.088071  0.063689
    H  H20   0.901344  0.105508  0.182766  0.100364
    H  H21   0.921151  0.131667  0.139063  0.016663
    H  H22   0.957431  0.122056  0.182275  0.047260
    H  H23   0.980450  0.927408  0.075410  0.079002
    H  H24   0.963599  0.913627  0.126513  0.109012
    H  H25   0.921805  0.923012  0.085384  0.141884
    H  H26   0.165106  0.165108  0.177094  0.357999
    H  H27   0.091342  0.988084  0.926238  0.140792
    H  H28   0.069690  0.997237  0.788909  0.107064
    H  H29   0.987695  0.001415  0.805825  0.102810
    H  H30   0.956835  0.012320  0.881080  0.028915
    H  H31   0.078597  0.171317  0.073268  0.303306
    H  H32   0.141857  0.971156  0.820628  -0.066607
    H  H33   0.145535  0.964471  0.876276  -0.121215
    H  H34   0.186392  0.021588  0.862413  0.332871
    H  H35   0.142255  0.050529  0.873054  0.337764
    H  H36   0.171317  0.078597  0.073267  0.332871
    H  H37   0.063443  0.042742  0.972047  0.064529
    H  H38   0.930491  0.967104  0.020287  0.079497
    H  H39   0.844089  0.225321  0.695684  0.088153
    H  H40   0.781037  0.162776  0.588071  0.068546
    H  H41   0.848742  0.144406  0.682766  0.097302
    H  H42   0.828935  0.118246  0.639063  0.006297
    H  H43   0.792655  0.127858  0.682275  0.043242
    H  H44   0.769636  0.322506  0.575410  0.080528
    H  H45   0.786487  0.336287  0.626513  0.112317
    H  H46   0.828281  0.326901  0.585384  0.142529
    H  H47   0.658745  0.261830  0.426238  0.079171
    H  H48   0.680396  0.252677  0.288909  0.121234
    H  H49   0.762391  0.248498  0.305825  0.117082
    H  H50   0.793252  0.237593  0.381080  0.045644
    H  H51   0.608229  0.278758  0.320628  -0.049490
    H  H52   0.604551  0.285442  0.376276  -0.085625
    H  H53   0.563694  0.228326  0.362413  0.329455
    H  H54   0.607831  0.199384  0.373054  0.303496
    H  H55   0.686643  0.207172  0.472047  0.069313
    H  H56   0.819596  0.282810  0.520287  0.094717
    H  H57   0.343746  0.524249  0.554315  0.084432
    H  H58   0.280693  0.586794  0.661927  0.071573
    H  H59   0.348398  0.605164  0.567233  0.097785
    H  H60   0.328592  0.631324  0.610936  0.007766
    H  H61   0.292312  0.621713  0.567724  0.043334
    H  H62   0.269293  0.427064  0.674589  0.067642
    H  H63   0.286144  0.413283  0.623486  0.097867
    H  H64   0.327938  0.422669  0.664615  0.128626
    H  H65   0.158401  0.487741  0.823761  0.083239
    H  H66   0.180053  0.496893  0.961090  0.122842
    H  H67   0.262048  0.501072  0.944174  0.114160
    H  H68   0.292908  0.511977  0.868919  0.021933
    H  H69   0.107885  0.470813  0.929371  -0.050587
    H  H70   0.104208  0.464128  0.873723  -0.088711
    H  H71   0.063350  0.521245  0.887586  0.328973
    H  H72   0.107487  0.550186  0.876945  0.305927
    H  H73   0.186300  0.542399  0.777952  0.070879
    H  H74   0.319252  0.466760  0.729711  0.101765
    H  H75   0.405997  0.725321  0.054316  0.073874
    H  H76   0.469049  0.662776  0.161929  0.280027
    H  H77   0.401344  0.644406  0.067234  0.117605
    H  H78   0.421151  0.618246  0.110937  0.271514
    H  H79   0.457431  0.627858  0.067725  0.127969
    H  H80   0.480450  0.822506  0.174590  0.084888
    H  H81   0.463599  0.836287  0.123487  0.121580
    H  H82   0.421805  0.826901  0.164616  0.150892
    H  H83   0.591342  0.761830  0.323762  0.139726
    H  H84   0.569690  0.752677  0.461091  0.106124
    H  H85   0.487695  0.748498  0.444175  0.103701
    H  H86   0.456835  0.737593  0.368920  0.027076
    H  H87   0.641857  0.778758  0.429372  -0.066680
    H  H88   0.645535  0.785442  0.373724  -0.123110
    H  H89   0.686392  0.728326  0.387587  0.333376
    H  H90   0.642255  0.699384  0.376946  0.338074
    H  H91   0.563443  0.707172  0.277953  0.056719
    H  H92   0.430491  0.782810  0.229713  0.063424
    H  H93   0.155911  0.774335  0.304316  0.081366
    H  H94   0.218964  0.836880  0.411928  0.092636
    H  H95   0.151259  0.855250  0.317234  0.099060
    H  H96   0.171065  0.881409  0.360937  0.008336
    H  H97   0.207345  0.871798  0.317725  0.032626
    H  H98   0.230364  0.677150  0.424590  0.063982
    H  H99   0.213513  0.663369  0.373487  0.098450
    H  H100  0.171719  0.672754  0.414616  0.126370
    H  H101  0.341256  0.737826  0.573762  0.090554
    H  H102  0.319604  0.746979  0.711091  0.123951
    H  H103  0.237609  0.751157  0.694174  0.120048
    H  H104  0.206749  0.762062  0.618920  0.064560
    H  H105  0.391772  0.720898  0.679371  -0.050755
    H  H106  0.395449  0.714213  0.623724  -0.086760
    H  H107  0.436307  0.771330  0.637586  0.334275
    H  H108  0.392170  0.800271  0.626946  0.306570
    H  H109  0.313357  0.792484  0.527952  0.066164
    H  H110  0.180405  0.716846  0.479712  0.092736
    H  H111  0.655911  0.475407  0.445684  0.082792
    H  H112  0.718963  0.412862  0.338071  0.100806
    H  H113  0.651258  0.394492  0.432766  0.097956
    H  H114  0.671065  0.368333  0.389063  0.004106
    H  H115  0.707345  0.377944  0.432275  0.036088
    H  H116  0.730364  0.572592  0.325410  0.073845
    H  H117  0.713513  0.586373  0.376513  0.097022
    H  H118  0.671719  0.576988  0.335384  0.128469
    H  H119  0.841255  0.511916  0.176238  0.079549
    H  H120  0.819604  0.502763  0.038909  0.120406
    H  H121  0.737609  0.498585  0.055825  0.116065
    H  H122  0.706748  0.487680  0.131080  0.044644
    H  H123  0.891771  0.528844  0.070628  -0.047585
    H  H124  0.895449  0.535529  0.126276  -0.083889
    H  H125  0.936306  0.478412  0.112413  0.327822
    H  H126  0.892169  0.449471  0.123054  0.306629
    H  H127  0.813357  0.457258  0.222047  0.066721
    H  H128  0.680404  0.532896  0.270287  0.102942
    H  H129  0.665280  0.165106  0.677094  0.391265
    H  H130  0.594003  0.274679  0.945684  0.085718
    H  H131  0.530951  0.337224  0.838071  0.070451
    H  H132  0.598656  0.355594  0.932766  0.104221
    H  H133  0.578849  0.381754  0.889063  0.019161
    H  H134  0.542569  0.372142  0.932275  0.053570
    H  H135  0.519550  0.177494  0.825410  0.075092
    H  H136  0.536401  0.163713  0.876513  0.111439
    H  H137  0.578195  0.173099  0.835384  0.138819
    H  H138  0.584980  0.084806  0.677094  0.387689
    H  H139  0.408658  0.238170  0.676238  0.083274
    H  H140  0.430310  0.247323  0.538909  0.122999
    H  H141  0.512305  0.251502  0.555825  0.122181
    H  H142  0.543165  0.262407  0.631080  0.064931
    H  H143  0.671489  0.078597  0.573268  0.305386
    H  H144  0.358143  0.221242  0.570628  -0.047872
    H  H145  0.354465  0.214558  0.626276  -0.085259
    H  H146  0.313608  0.271674  0.612413  0.333150
    H  H147  0.357745  0.300616  0.623054  0.308685
    H  H148  0.578769  0.171317  0.573267  0.310289
    H  H149  0.436557  0.292828  0.722047  0.062977
    H  H150  0.569509  0.217190  0.770287  0.089691
    H  H151  0.905653  0.524077  0.695683  0.069646
    H  H152  0.968706  0.586622  0.588070  0.343844
    H  H153  0.901001  0.604992  0.682765  0.121269
    H  H154  0.920807  0.631151  0.639061  0.269574
    H  H155  0.957087  0.621540  0.682273  0.137076
    H  H156  0.980106  0.426892  0.575408  0.086991
    H  H157  0.963255  0.413111  0.626512  0.123329
    H  H158  0.921461  0.422496  0.585382  0.150574
    H  H159  0.090998  0.487568  0.426237  0.071225
    H  H160  0.069346  0.496721  0.288908  0.120071
    H  H161  0.987351  0.500899  0.305824  0.115291
    H  H162  0.956491  0.511804  0.381079  0.043673
    H  H163  0.141514  0.470640  0.320627  -0.048368
    H  H164  0.145191  0.463955  0.376274  -0.087749
    H  H165  0.186049  0.521072  0.362412  0.330573
    H  H166  0.141912  0.550013  0.373052  0.306131
    H  H167  0.063099  0.542226  0.472046  0.051984
    H  H168  0.930147  0.466588  0.520286  0.075428
    H  H169  0.844089  0.725493  0.195684  0.080754
    H  H170  0.781037  0.662949  0.088071  0.107172
    H  H171  0.848742  0.644579  0.182766  0.100825
    H  H172  0.828935  0.618419  0.139063  0.009845
    H  H173  0.792655  0.628030  0.182275  0.040319
    H  H174  0.769636  0.822678  0.075410  0.079921
    H  H175  0.786487  0.836459  0.126513  0.113705
    H  H176  0.828281  0.827074  0.085384  0.138715
    H  H177  0.658745  0.762002  0.926238  0.079001
    H  H178  0.680396  0.752849  0.788909  0.122398
    H  H179  0.762391  0.748671  0.805825  0.115534
    H  H180  0.793252  0.737766  0.881080  0.030523
    H  H181  0.608229  0.778930  0.820628  -0.050415
    H  H182  0.604551  0.785615  0.876276  -0.089652
    H  H183  0.563694  0.728498  0.862413  0.327234
    H  H184  0.607831  0.699557  0.873054  0.306920
    H  H185  0.686643  0.707344  0.972047  0.067938
    H  H186  0.819596  0.782983  0.020287  0.100432
    H  H187  0.344089  0.024421  0.054316  0.080508
    H  H188  0.281037  0.086965  0.161929  0.100513
    H  H189  0.348742  0.105335  0.067234  0.099645
    H  H190  0.328935  0.131495  0.110937  0.011476
    H  H191  0.292655  0.121884  0.067725  0.035963
    H  H192  0.269636  0.927236  0.174590  0.078924
    H  H193  0.286487  0.913454  0.123487  0.113038
    H  H194  0.328281  0.922840  0.164616  0.138495
    H  H195  0.158745  0.987912  0.323762  0.077220
    H  H196  0.180396  0.997064  0.461091  0.123096
    H  H197  0.262391  0.001243  0.444175  0.114017
    H  H198  0.293252  0.012148  0.368920  0.030995
    H  H199  0.108229  0.970984  0.429372  -0.055585
    H  H200  0.104551  0.964299  0.373724  -0.093327
    H  H201  0.063694  0.021416  0.387587  0.332261
    H  H202  0.107831  0.050357  0.376946  0.306537
    H  H203  0.186643  0.042570  0.277953  0.065130
    H  H204  0.319596  0.966931  0.229713  0.098965
    H  H205  0.155911  0.274507  0.804316  0.080857
    H  H206  0.218963  0.337051  0.911929  0.099989
    H  H207  0.151258  0.355421  0.817234  0.098356
    H  H208  0.171065  0.381581  0.860937  0.011309
    H  H209  0.207345  0.371970  0.817725  0.036584
    H  H210  0.230364  0.177322  0.924590  0.074120
    H  H211  0.213513  0.163541  0.873487  0.098219
    H  H212  0.171719  0.172926  0.914616  0.128238
    H  H213  0.341255  0.237998  0.073762  0.078018
    H  H214  0.319604  0.247151  0.211091  0.122098
    H  H215  0.237609  0.251329  0.194175  0.111841
    H  H216  0.206748  0.262234  0.118920  0.022052
    H  H217  0.391771  0.221070  0.179372  -0.052836
    H  H218  0.395449  0.214385  0.123724  -0.090631
    H  H219  0.436306  0.271502  0.137587  0.330779
    H  H220  0.392169  0.300443  0.126946  0.309251
    H  H221  0.313357  0.292656  0.027953  0.063629
    H  H222  0.180404  0.217017  0.979713  0.105242
    H  H223  0.656255  0.975235  0.945683  0.082965
    H  H224  0.719307  0.912691  0.838071  0.094126
    H  H225  0.651602  0.894320  0.932765  0.099685
    H  H226  0.671409  0.868161  0.889062  0.009836
    H  H227  0.707689  0.877772  0.932274  0.033904
    H  H228  0.730708  0.072420  0.825409  0.076950
    H  H229  0.713857  0.086201  0.876512  0.112567
    H  H230  0.672063  0.076816  0.835383  0.138036
    H  H231  0.841600  0.011744  0.676237  0.089494
    H  H232  0.819948  0.002591  0.538908  0.123742
    H  H233  0.737953  0.998413  0.555824  0.120383
    H  H234  0.707093  0.987508  0.631079  0.064345
    H  H235  0.892115  0.028672  0.570627  -0.049906
    H  H236  0.895793  0.035357  0.626275  -0.085628
    H  H237  0.936650  0.978240  0.612413  0.333690
    H  H238  0.892513  0.949299  0.623053  0.307565
    H  H239  0.813701  0.957086  0.722046  0.065399
    H  H240  0.680749  0.032725  0.770287  0.091263
    H  H241  0.164936  0.584464  0.572904  0.386089
    H  H242  0.406169  0.024593  0.695684  0.085270
    H  H243  0.469222  0.087138  0.588071  0.062415
    H  H244  0.401517  0.105508  0.682766  0.092464
    H  H245  0.421323  0.131667  0.639063  0.002168
    H  H246  0.457603  0.122056  0.682275  0.036061
    H  H247  0.480622  0.927408  0.575410  0.061843
    H  H248  0.463771  0.913627  0.626513  0.093311
    H  H249  0.421977  0.923012  0.585384  0.123530
    H  H250  0.084636  0.664764  0.572904  0.377206
    H  H251  0.591514  0.988084  0.426238  0.151816
    H  H252  0.569862  0.997237  0.288909  0.112427
    H  H253  0.487867  0.001415  0.305825  0.106009
    H  H254  0.457007  0.012320  0.381080  0.027185
    H  H255  0.171146  0.670973  0.676731  0.299282
    H  H256  0.642030  0.971156  0.320628  -0.068266
    H  H257  0.645707  0.964471  0.376276  -0.119739
    H  H258  0.686565  0.021588  0.362413  0.326728
    H  H259  0.642428  0.050529  0.373054  0.334685
    H  H260  0.078426  0.578253  0.676731  0.325489
    H  H261  0.563615  0.042742  0.472047  0.070079
    H  H262  0.430663  0.967104  0.520287  0.090416
    H  H263  0.905826  0.724977  0.554315  0.075339
    H  H264  0.968878  0.662432  0.661927  0.284943
    H  H265  0.901173  0.644062  0.567233  0.107936
    H  H266  0.920980  0.617903  0.610936  0.277366
    H  H267  0.957260  0.627514  0.567724  0.122586
    H  H268  0.980279  0.822162  0.674589  0.068312
    H  H269  0.963428  0.835943  0.623486  0.106307
    H  H270  0.921634  0.826558  0.664615  0.132720
    H  H271  0.091170  0.761486  0.823761  0.149349
    H  H272  0.069519  0.752333  0.961090  0.111593
    H  H273  0.987524  0.748155  0.944174  0.106915
    H  H274  0.956663  0.737250  0.868919  0.022432
    H  H275  0.141686  0.778414  0.929371  -0.069228
    H  H276  0.145364  0.785099  0.873723  -0.122404
    H  H277  0.186221  0.727982  0.887586  0.327578
    H  H278  0.142084  0.699041  0.876945  0.335002
    H  H279  0.063272  0.706828  0.777952  0.063666
    H  H280  0.930319  0.782467  0.729711  0.072957
    H  H281  0.093831  0.274679  0.445683  0.083402
    H  H282  0.030779  0.337223  0.338071  0.101384
    H  H283  0.098484  0.355593  0.432765  0.096291
    H  H284  0.078677  0.381753  0.389062  0.002096
    H  H285  0.042397  0.372142  0.432274  0.035045
    H  H286  0.019378  0.177494  0.325409  0.061662
    H  H287  0.036229  0.163712  0.376512  0.098039
    H  H288  0.078023  0.173098  0.335383  0.124672
    H  H289  0.908487  0.238170  0.176237  0.091454
    H  H290  0.930138  0.247322  0.038908  0.124588
    H  H291  0.012133  0.251501  0.055824  0.120032
    H  H292  0.042994  0.262406  0.131079  0.040568
    H  H293  0.857971  0.221242  0.070627  -0.048096
    H  H294  0.854293  0.214557  0.126275  -0.085242
    H  H295  0.813436  0.271674  0.112413  0.328257
    H  H296  0.857573  0.300615  0.123053  0.309647
    H  H297  0.936385  0.292828  0.222046  0.070008
    H  H298  0.069338  0.217189  0.270287  0.099345
    H  H299  0.405825  0.524421  0.195684  0.071194
    H  H300  0.468878  0.586966  0.088072  0.346860
    H  H301  0.401172  0.605336  0.182766  0.111656
    H  H302  0.420979  0.631496  0.139063  0.273660
    H  H303  0.457259  0.621884  0.182275  0.130918
    H  H304  0.480278  0.427236  0.075410  0.069988
    H  H305  0.463427  0.413455  0.126513  0.109319
    H  H306  0.421633  0.422841  0.085384  0.133875
    H  H307  0.591170  0.487912  0.926238  0.090073
    H  H308  0.569518  0.497065  0.788909  0.123803
    H  H309  0.487523  0.501244  0.805826  0.121052
    H  H310  0.456663  0.512149  0.881080  0.037549
    H  H311  0.641685  0.470984  0.820629  -0.050267
    H  H312  0.645363  0.464300  0.876276  -0.088241
    H  H313  0.686220  0.521416  0.862414  0.327993
    H  H314  0.642084  0.550358  0.873054  0.310039
    H  H315  0.563271  0.542570  0.972048  0.059932
    H  H316  0.430319  0.466932  0.020288  0.080571
    H  H317  0.584806  0.665106  0.072906  0.383753
    H  H318  0.665106  0.584806  0.072906  0.351280
    H  H319  0.578597  0.578597  0.176732  0.314804
    H  H320  0.671317  0.671317  0.176733  0.326820
    N  N1    0.934223  0.984149  0.152548  -0.616053
    N  N2    0.155975  0.026677  0.853067  -0.920927
    N  N3    0.815863  0.265765  0.652548  -0.603863
    N  N4    0.594111  0.223237  0.353067  -0.892788
    N  N5    0.315519  0.483806  0.597451  -0.616728
    N  N6    0.093768  0.526333  0.896932  -0.896831
    N  N7    0.434223  0.765765  0.097452  -0.655789
    N  N8    0.655975  0.723237  0.396933  -0.921954
    N  N9    0.184138  0.733891  0.347452  -0.612828
    N  N10   0.405889  0.776419  0.646932  -0.895239
    N  N11   0.684137  0.515851  0.402548  -0.609766
    N  N12   0.905889  0.473323  0.103067  -0.891754
    N  N13   0.565777  0.234235  0.902548  -0.613015
    N  N14   0.344025  0.276763  0.603067  -0.896297
    N  N15   0.933880  0.483633  0.652547  -0.653479
    N  N16   0.155631  0.526161  0.353066  -0.894538
    N  N17   0.815863  0.765937  0.152548  -0.607337
    N  N18   0.594111  0.723410  0.853067  -0.895657
    N  N19   0.315863  0.983977  0.097452  -0.611341
    N  N20   0.094111  0.026504  0.396933  -0.900521
    N  N21   0.184137  0.234063  0.847452  -0.618590
    N  N22   0.405889  0.276590  0.146933  -0.900270
    N  N23   0.684481  0.015679  0.902547  -0.606474
    N  N24   0.906233  0.973152  0.603066  -0.895828
    N  N25   0.434396  0.984149  0.652548  -0.617179
    N  N26   0.656148  0.026677  0.353067  -0.918159
    N  N27   0.934052  0.765421  0.597451  -0.659333
    N  N28   0.155804  0.722894  0.896932  -0.920440
    N  N29   0.065605  0.234235  0.402547  -0.612543
    N  N30   0.843853  0.276762  0.103066  -0.896199
    N  N31   0.434051  0.483977  0.152548  -0.656855
    N  N32   0.655803  0.526505  0.853068  -0.898222
    O  O1    0.036959  0.089934  0.071062  -0.752633
    O  O2    0.089934  0.036960  0.071061  -0.790891
    O  O3    0.160936  0.036622  0.179140  -0.805746
    O  O4    0.963041  0.409893  0.428938  -0.662324
    O  O5    0.911022  0.286536  0.320862  -0.793474
    O  O6    0.963377  0.338892  0.320862  -0.800062
    O  O7    0.839064  0.463206  0.320860  -0.789538
    O  O8    0.786708  0.410850  0.320860  -0.792902
    O  O9    0.836150  0.335979  0.350027  -0.763511
    O  O10   0.913935  0.413764  0.350027  -0.764432
    O  O11   0.914966  0.334948  0.401217  -0.740671
    O  O12   0.835121  0.414793  0.401217  -0.745933
    O  O13   0.086065  0.086064  0.149973  -0.856552
    O  O14   0.910066  0.963041  0.928938  -0.730651
    O  O15   0.963040  0.910066  0.928939  -0.834305
    O  O16   0.840020  0.787046  0.928939  -0.701267
    O  O17   0.787046  0.840021  0.928938  -0.645424
    O  O18   0.839064  0.963377  0.820862  -0.808289
    O  O19   0.786709  0.911022  0.820862  -0.782093
    O  O20   0.911022  0.786708  0.820860  -0.728305
    O  O21   0.163850  0.163848  0.149973  -0.769988
    O  O22   0.963378  0.839064  0.820860  -0.834433
    O  O23   0.913936  0.913935  0.850027  -0.757440
    O  O24   0.836152  0.836150  0.850027  -0.815744
    O  O25   0.835120  0.914966  0.901217  -0.796199
    O  O26   0.914965  0.835121  0.901217  -0.671356
    O  O27   0.085034  0.164880  0.098783  -0.676384
    O  O28   0.339677  0.462697  0.821061  -0.679719
    O  O29   0.286702  0.409722  0.821060  -0.652539
    O  O30   0.409722  0.286702  0.821060  -0.797735
    O  O31   0.462697  0.339677  0.821061  -0.758701
    O  O32   0.164879  0.085035  0.098783  -0.742664
    O  O33   0.410678  0.463034  0.929137  -0.693914
    O  O34   0.463034  0.410678  0.929137  -0.688832
    O  O35   0.338720  0.286364  0.929138  -0.808981
    O  O36   0.286364  0.338720  0.929138  -0.794326
    O  O37   0.335807  0.413591  0.899971  -0.765454
    O  O38   0.413591  0.335807  0.899971  -0.857414
    O  O39   0.414622  0.414622  0.848782  -0.676264
    O  O40   0.334777  0.334777  0.848782  -0.744938
    O  O41   0.410066  0.786873  0.321062  -0.736488
    O  O42   0.463040  0.839848  0.321061  -0.838217
    O  O43   0.340020  0.962868  0.321061  -0.700566
    O  O44   0.287046  0.909893  0.321062  -0.646786
    O  O45   0.339064  0.786536  0.429138  -0.805987
    O  O46   0.286709  0.838892  0.429138  -0.779076
    O  O47   0.411022  0.963206  0.429140  -0.722246
    O  O48   0.463378  0.910850  0.429140  -0.830114
    O  O49   0.413936  0.835979  0.399973  -0.756142
    O  O50   0.336152  0.913764  0.399973  -0.819381
    O  O51   0.335120  0.834948  0.348783  -0.791729
    O  O52   0.414965  0.914793  0.348783  -0.669140
    O  O53   0.713127  0.159979  0.571062  -0.765799
    O  O54   0.660152  0.212954  0.571061  -0.787500
    O  O55   0.537132  0.089934  0.571061  -0.760110
    O  O56   0.590107  0.036959  0.571062  -0.783228
    O  O57   0.212954  0.159980  0.071061  -0.649409
    O  O58   0.713464  0.088978  0.679138  -0.694538
    O  O59   0.661108  0.036623  0.679138  -0.707702
    O  O60   0.536794  0.160936  0.679140  -0.686009
    O  O61   0.589150  0.213292  0.679140  -0.706848
    O  O62   0.664021  0.163850  0.649973  -0.854426
    O  O63   0.586236  0.086065  0.649973  -0.851527
    O  O64   0.665052  0.085034  0.598783  -0.665230
    O  O65   0.585207  0.164879  0.598783  -0.672435
    O  O66   0.159979  0.212954  0.071062  -0.676723
    O  O67   0.212783  0.589591  0.678937  -0.772883
    O  O68   0.159808  0.536616  0.678938  -0.790523
    O  O69   0.036789  0.659636  0.678938  -0.748520
    O  O70   0.089763  0.712611  0.678937  -0.771298
    O  O71   0.213120  0.660592  0.570861  -0.692877
    O  O72   0.160764  0.712948  0.570861  -0.698787
    O  O73   0.036451  0.588634  0.570859  -0.798668
    O  O74   0.088806  0.536278  0.570859  -0.799507
    O  O75   0.036623  0.160936  0.179138  -0.684405
    O  O76   0.163677  0.585720  0.600026  -0.835483
    O  O77   0.085893  0.663505  0.600026  -0.830075
    O  O78   0.164709  0.664536  0.651215  -0.649007
    O  O79   0.084863  0.584691  0.651216  -0.724763
    O  O80   0.088978  0.213291  0.179138  -0.690572
    O  O81   0.536959  0.659979  0.178938  -0.738718
    O  O82   0.589934  0.712954  0.178939  -0.779295
    O  O83   0.712954  0.589934  0.178939  -0.661354
    O  O84   0.659979  0.536959  0.178938  -0.681983
    O  O85   0.536623  0.588978  0.070862  -0.802139
    O  O86   0.588978  0.536623  0.070862  -0.786283
    O  O87   0.713292  0.660936  0.070860  -0.802148
    O  O88   0.660936  0.713292  0.070860  -0.797561
    O  O89   0.586065  0.663850  0.100027  -0.835105
    O  O90   0.663850  0.586065  0.100027  -0.740051
    O  O91   0.585034  0.585034  0.151217  -0.723234
    O  O92   0.664879  0.664879  0.151217  -0.728113
    O  O93   0.213292  0.088978  0.179140  -0.790940
    O  O94   0.840021  0.286873  0.428938  -0.689458
    O  O95   0.787046  0.339848  0.428939  -0.660048
    O  O96   0.910066  0.462868  0.428939  -0.693517
    V  V1    0.875190  0.291945  0.374841  1.272010
    V  V2    0.874896  0.457797  0.374839  1.275133
    V  V3    0.957969  0.374724  0.374841  1.308677
    V  V4    0.792116  0.375018  0.374839  1.311499
    V  V5    0.874896  0.957969  0.874841  1.299576
    V  V6    0.875191  0.792116  0.874839  1.285489
    V  V7    0.792117  0.875190  0.874841  1.326313
    V  V8    0.957970  0.874896  0.874839  1.343981
    V  V9    0.042031  0.125104  0.125159  1.300173
    V  V10   0.374847  0.457626  0.875158  1.257486
    V  V11   0.374552  0.291773  0.875160  1.296432
    V  V12   0.457626  0.374847  0.875158  1.306912
    V  V13   0.291773  0.374552  0.875160  1.294862
    V  V14   0.207884  0.124809  0.125161  1.288128
    V  V15   0.124810  0.207883  0.125159  1.251241
    V  V16   0.374896  0.791945  0.375159  1.313254
    V  V17   0.375191  0.957797  0.375161  1.300581
    V  V18   0.292117  0.874724  0.375159  1.342084
    V  V19   0.457970  0.875018  0.375161  1.360554
    V  V20   0.125104  0.042030  0.125161  1.292898
    V  V21   0.708055  0.124810  0.625159  1.305672
    V  V22   0.542203  0.125104  0.625161  1.302980
    V  V23   0.625276  0.042031  0.625159  1.266733
    V  V24   0.624982  0.207884  0.625161  1.269158
    V  V25   0.207712  0.624760  0.624839  1.295213
    V  V26   0.041859  0.624466  0.624838  1.310737
    V  V27   0.124933  0.707539  0.624839  1.251505
    V  V28   0.124638  0.541687  0.624838  1.280581
    V  V29   0.542031  0.624810  0.124841  1.308316
    V  V30   0.707884  0.625104  0.124839  1.285046
    V  V31   0.624810  0.542031  0.124841  1.245281
    V  V32   0.625104  0.707884  0.124839  1.280432
