# Generated by REPEAT Assigner based on pymatgen
data_DB11-pMOF_132
_audit_creation_date              2022-05-24
_audit_creation_method            REPEAT_Assigner
_cell_length_a                    15.944500
_cell_length_b                    12.811400
_cell_length_c                    13.448300
_cell_angle_alpha                 84.567000
_cell_angle_beta                  90.012900
_cell_angle_gamma                 83.768400
_cell_volume                      2718.449408
_symmetry_space_group_name_H-M    P1
_symmetry_Int_Tables_number       1
loop_
    _symmetry_equiv_pos_site_id
    _symmetry_equiv_pos_as_xyz
    1  x,y,z
loop_
    _atom_site_type_symbol
    _atom_site_label
    _atom_site_fract_x
    _atom_site_fract_y
    _atom_site_fract_z
    _atom_type_partial_charge
    Cu  Cu1  0.176450  0.161780  0.049270  0.707843
    Cu  Cu2  0.176480  0.161770  0.244850  0.711656
    C   C1   0.704340  0.162390  0.052820  -0.157319
    C   C2   0.657300  0.074670  0.107800  -0.158711
    C   C3   0.758930  0.163590  0.146890  0.638043
    C   C4   0.639810  0.247610  0.092230  -0.146373
    C   C5   0.594010  0.159950  0.147230  0.635372
    C   C6   0.713130  0.075820  0.201870  -0.145123
    C   C7   0.695640  0.248840  0.186280  -0.159244
    C   C8   0.648630  0.161100  0.241330  -0.159539
    C   C9   0.853940  0.165690  0.146690  -0.392448
    C   C10  0.499000  0.157850  0.147430  -0.387545
    H   H1   0.728810  0.162850  0.973160  0.064338
    H   H2   0.640170  0.001010  0.074650  0.067286
    H   H3   0.744950  0.003170  0.248200  0.065055
    H   H4   0.624330  0.160510  0.321070  0.065356
    H   H5   0.712780  0.322500  0.219400  0.067759
    H   H6   0.607890  0.320180  0.045860  0.065367
    C   C11  0.022920  0.169440  0.146360  0.834096
    C   C12  0.929670  0.167360  0.146530  -0.156620
    O   O1   0.054200  0.170140  0.059710  -0.587345
    O   O2   0.054230  0.170130  0.232880  -0.588226
    C   C13  0.330010  0.154110  0.147760  0.840287
    C   C14  0.423260  0.156180  0.147580  -0.162029
    O   O3   0.298730  0.153410  0.234410  -0.589444
    O   O4   0.298710  0.153410  0.061240  -0.590160
    C   C15  0.175970  0.634420  0.014290  -0.256444
    C   C16  0.174030  0.524940  0.024160  -0.111876
    C   C17  0.174050  0.524920  0.204470  -0.252052
    C   C18  0.175990  0.634400  0.194610  0.215353
    C   C19  0.176950  0.689140  0.099510  0.208242
    C   C20  0.178890  0.798620  0.089650  -0.250948
    C   C21  0.178910  0.798610  0.269960  -0.110461
    C   C22  0.176970  0.689130  0.279820  -0.261009
    H   H7   0.179670  0.843200  0.012220  0.127022
    H   H8   0.176750  0.678990  0.936870  0.135391
    H   H9   0.173250  0.480380  0.954770  0.107714
    H   H10  0.173270  0.480340  0.281900  0.127000
    H   H11  0.176190  0.644540  0.357250  0.135956
    H   H12  0.179690  0.843180  0.339350  0.107844
    C   C23  0.181930  0.969880  0.164360  0.592211
    C   C24  0.179860  0.853360  0.174870  0.006788
    O   O5   0.182640  0.008970  0.247420  -0.506148
    O   O6   0.182610  0.008980  0.074250  -0.500772
    C   C25  0.171000  0.353670  0.129750  0.594649
    C   C26  0.173070  0.470190  0.119250  0.003296
    O   O7   0.170300  0.314570  0.046700  -0.504851
    O   O8   0.170320  0.314570  0.219860  -0.499858
    C   C27  0.119710  0.233270  0.853180  0.028446
    C   C28  0.119720  0.233270  0.749080  -0.250818
    C   C29  0.176460  0.161780  0.703500  0.166966
    C   C30  0.233210  0.090290  0.762020  -0.248887
    C   C31  0.233200  0.090290  0.866120  0.020257
    C   C32  0.233220  0.090280  0.545040  -0.248606
    C   C33  0.233230  0.090280  0.440940  0.028818
    C   C34  0.119740  0.233260  0.428000  0.021340
    C   C35  0.119730  0.233270  0.532100  -0.247684
    C   C36  0.176470  0.161770  0.590620  0.164726
    H   H13  0.073490  0.291480  0.890290  0.130894
    H   H14  0.073520  0.291500  0.701440  0.137827
    H   H15  0.073520  0.291470  0.569210  0.136706
    H   H16  0.073540  0.291490  0.380350  0.133443
    H   H17  0.279440  0.032060  0.403830  0.131052
    H   H18  0.279430  0.032060  0.592680  0.136904
    H   H19  0.279410  0.032080  0.724910  0.137043
    H   H20  0.279390  0.032070  0.913760  0.134357
    N   N1   0.176440  0.161780  0.911700  0.000655
    N   N2   0.176490  0.161760  0.382420  -0.002817
