# Generated by REPEAT Assigner based on pymatgen
data_DB6-cuf_9199
_audit_creation_date              2022-05-24
_audit_creation_method            REPEAT_Assigner
_cell_length_a                    15.995300
_cell_length_b                    16.109300
_cell_length_c                    14.586300
_cell_angle_alpha                 90.002400
_cell_angle_beta                  90.015200
_cell_angle_gamma                 83.474200
_cell_volume                      3734.144679
_symmetry_space_group_name_H-M    P1
_symmetry_Int_Tables_number       1
loop_
    _symmetry_equiv_pos_site_id
    _symmetry_equiv_pos_as_xyz
    1  x,y,z
loop_
    _atom_site_type_symbol
    _atom_site_label
    _atom_site_fract_x
    _atom_site_fract_y
    _atom_site_fract_z
    _atom_type_partial_charge
    Cu  Cu1  0.231520  0.133330  0.030930  0.833028
    Cu  Cu2  0.231550  0.133320  0.211260  0.813571
    C   C1   0.647760  0.131860  0.121100  0.410013
    C   C2   0.683080  0.132790  0.020660  0.250086
    C   C3   0.779800  0.134170  0.020600  0.092484
    C   C4   0.815320  0.134790  0.121090  0.341273
    C   C5   0.790710  0.054840  0.170970  0.115797
    C   C6   0.694000  0.053080  0.170320  0.128392
    C   C7   0.673040  0.211080  0.172390  0.151793
    C   C8   0.769620  0.213820  0.170510  0.076371
    C   C9   0.910020  0.136450  0.121080  -0.107684
    C   C10  0.553060  0.130200  0.121110  -0.135609
    N   N1   0.656690  0.039060  0.260550  -0.808216
    H   H1   0.679830  0.979860  0.284890  0.314254
    H   H2   0.669590  0.083500  0.308890  0.259457
    N   N2   0.829810  0.045430  0.262350  -0.796813
    H   H3   0.822610  0.986310  0.288740  0.307579
    H   H4   0.803610  0.090490  0.308490  0.256593
    N   N3   0.623700  0.287380  0.137570  -0.845971
    H   H5   0.626230  0.335960  0.184670  0.337675
    H   H6   0.646620  0.306010  0.074640  0.298968
    N   N4   0.792800  0.291920  0.130110  -0.942929
    H   H7   0.766690  0.342000  0.170290  0.332228
    H   H8   0.857400  0.294250  0.137660  0.352296
    N   N5   0.654710  0.065520  0.964250  -0.903248
    H   H9   0.667430  0.077140  0.895420  0.349857
    H   H10  0.686890  0.007480  0.980840  0.301706
    N   N6   0.824190  0.070570  0.959950  -0.867971
    H   H11  0.884670  0.086040  0.946170  0.344695
    H   H12  0.830280  0.011190  0.989150  0.266104
    H   H13  0.796020  0.191460  0.981470  0.070927
    H   H14  0.652300  0.189280  0.981230  0.061976
    H   H15  0.679260  0.993370  0.134870  0.062068
    H   H16  0.822710  0.996210  0.136320  0.050038
    H   H17  0.793160  0.219040  0.243820  0.025786
    H   H18  0.650110  0.211210  0.246380  0.070651
    C   C11  0.078450  0.139410  0.121080  0.777729
    C   C12  0.985500  0.137770  0.121070  -0.283940
    O   O1   0.109630  0.139960  0.041260  -0.555071
    O   O2   0.109660  0.139950  0.200910  -0.544248
    C   C13  0.384620  0.127240  0.121110  0.781995
    C   C14  0.477580  0.128880  0.121120  -0.272127
    O   O3   0.353480  0.126450  0.200930  -0.536311
    O   O4   0.353390  0.126940  0.041280  -0.536706
    C   C15  0.232290  0.676680  0.037980  0.437295
    C   C16  0.230760  0.589960  0.037980  -0.332190
    C   C17  0.230790  0.589970  0.204220  0.438720
    C   C18  0.232320  0.676690  0.204220  -0.334446
    C   C19  0.233070  0.720050  0.121090  -0.053335
    C   C20  0.230010  0.546600  0.121100  -0.052316
    C   C21  0.228350  0.452580  0.121100  0.085134
    C   C22  0.234730  0.814080  0.121090  0.086994
    N   N7   0.230050  0.547720  0.290840  -0.926244
    H   H19  0.228910  0.483300  0.296250  0.378700
    H   H20  0.230660  0.581230  0.352130  0.376867
    N   N8   0.233030  0.718940  0.951350  -0.921655
    H   H21  0.234170  0.783360  0.945940  0.377864
    H   H22  0.232420  0.685430  0.890060  0.375286
    H   H23  0.230140  0.554670  0.970290  0.184884
    H   H24  0.232950  0.711990  0.271910  0.184199
    C   C23  0.237690  0.981320  0.121090  0.793840
    C   C24  0.236050  0.889030  0.121080  -0.345108
    O   O5   0.238250  0.012290  0.200920  -0.525609
    O   O6   0.238220  0.012290  0.041260  -0.543977
    C   C25  0.225390  0.285330  0.121100  0.781605
    C   C26  0.227030  0.377620  0.121110  -0.342547
    O   O7   0.224840  0.254360  0.041270  -0.523713
    O   O8   0.224850  0.254360  0.200930  -0.537433
    C   C27  0.174720  0.189960  0.669070  0.269305
    C   C28  0.174730  0.189960  0.573090  -0.184411
    C   C29  0.288370  0.076690  0.573130  0.273502
    C   C30  0.288360  0.076690  0.669110  -0.187117
    C   C31  0.231530  0.133330  0.717080  -0.052933
    C   C32  0.231550  0.133320  0.525120  -0.053856
    C   C33  0.231560  0.133320  0.421050  0.166897
    C   C34  0.231520  0.133330  0.821150  0.172473
    O   O9   0.344070  0.021170  0.520550  -0.247131
    C   C35  0.403070  0.962360  0.566770  -0.012429
    H   H25  0.369810  0.919250  0.609270  0.050113
    H   H26  0.446650  0.995190  0.609300  0.057087
    H   H27  0.441030  0.924520  0.514820  0.097706
    O   O10  0.119010  0.245480  0.721640  -0.249460
    C   C36  0.060010  0.304290  0.675420  -0.002607
    H   H28  0.016430  0.271460  0.632900  0.050450
    H   H29  0.093280  0.347400  0.632930  0.048410
    H   H30  0.022050  0.342130  0.727380  0.095252
    H   H31  0.128470  0.236090  0.534010  0.159393
    H   H32  0.334630  0.030560  0.708190  0.162736
    N   N9   0.231510  0.133330  0.904100  -0.191764
    N   N10  0.231570  0.133320  0.338090  -0.182975
