# Generated by REPEAT Assigner based on pymatgen
data_DB6-cuf_9656
_audit_creation_date              2022-05-24
_audit_creation_method            REPEAT_Assigner
_cell_length_a                    15.995300
_cell_length_b                    14.971500
_cell_length_c                    9.130310
_cell_angle_alpha                 90.002300
_cell_angle_beta                  90.011100
_cell_angle_gamma                 83.548600
_cell_volume                      2172.622707
_symmetry_space_group_name_H-M    P1
_symmetry_Int_Tables_number       1
loop_
    _symmetry_equiv_pos_site_id
    _symmetry_equiv_pos_as_xyz
    1  x,y,z
loop_
    _atom_site_type_symbol
    _atom_site_label
    _atom_site_fract_x
    _atom_site_fract_y
    _atom_site_fract_z
    _atom_type_partial_charge
    Cu  Cu1  0.197310  0.223690  0.923170  0.473355
    Cu  Cu2  0.197330  0.223680  0.211260  0.628682
    C   C1   0.613540  0.222110  0.067230  -0.112441
    C   C2   0.648860  0.223110  0.906760  0.227809
    C   C3   0.745590  0.224590  0.906670  0.240055
    C   C4   0.781100  0.225260  0.067200  -0.127453
    C   C5   0.756380  0.139240  0.146890  0.198575
    C   C6   0.659670  0.137350  0.145860  0.260061
    C   C7   0.638920  0.307340  0.149160  0.231147
    C   C8   0.735500  0.310280  0.146150  0.248883
    C   C9   0.875800  0.227040  0.067200  0.074976
    C   C10  0.518840  0.220320  0.067240  0.060878
    F   F1   0.627700  0.149240  0.829510  -0.239400
    F   F2   0.630110  0.131700  0.287980  -0.242652
    F   F3   0.755020  0.388090  0.077510  -0.248003
    F   F4   0.784530  0.151190  0.830410  -0.245522
    F   F5   0.598410  0.384790  0.086690  -0.255329
    F   F6   0.786540  0.136470  0.289650  -0.239830
    H   H1   0.761880  0.286230  0.844150  0.061024
    H   H2   0.618160  0.283880  0.843770  0.059174
    H   H3   0.644860  0.073120  0.089220  0.055063
    H   H4   0.788310  0.076170  0.091540  0.069855
    H   H5   0.759050  0.315900  0.263280  0.057427
    H   H6   0.615980  0.307480  0.267380  0.060959
    C   C11  0.044240  0.230230  0.067190  0.819231
    C   C12  0.951290  0.228470  0.067180  -0.359677
    O   O1   0.075420  0.230820  0.939670  -0.500170
    O   O2   0.075440  0.230820  0.194730  -0.525950
    C   C13  0.350390  0.217140  0.067240  0.818932
    C   C14  0.443350  0.218900  0.067250  -0.351319
    O   O3   0.319240  0.216290  0.194760  -0.494732
    O   O4   0.319160  0.216810  0.939700  -0.530649
    C   C15  0.200670  0.914210  0.934410  0.531672
    C   C16  0.199030  0.820910  0.934420  -0.413597
    C   C17  0.198220  0.774260  0.067210  0.071385
    C   C18  0.199050  0.820920  0.200010  0.194618
    C   C19  0.200700  0.914220  0.200000  -0.263020
    C   C20  0.195610  0.626460  0.200010  0.216589
    C   C21  0.193960  0.533160  0.200020  -0.274518
    C   C22  0.193940  0.533160  0.934430  0.518132
    C   C23  0.195590  0.626450  0.934430  -0.407370
    C   C24  0.196430  0.673100  0.067220  0.061643
    N   N1   0.192390  0.485140  0.799080  -0.948261
    H   H7   0.191600  0.415440  0.798200  0.374821
    H   H8   0.191840  0.518760  0.698760  0.377118
    N   N2   0.202220  0.962230  0.799120  -0.980422
    H   H9   0.203000  0.031860  0.798140  0.388443
    H   H10  0.202690  0.928630  0.698790  0.386784
    N   N3   0.148060  0.665040  0.322730  -0.565717
    H   H11  0.097030  0.714200  0.307060  0.268273
    H   H12  0.155370  0.636230  0.426880  0.256008
    N   N4   0.246620  0.782320  0.322750  -0.538254
    H   H13  0.239310  0.811200  0.426910  0.245785
    H   H14  0.297650  0.733230  0.307090  0.261274
    H   H15  0.198360  0.782940  0.826290  0.170522
    H   H16  0.196250  0.664430  0.826300  0.164804
    H   H17  0.193300  0.495190  0.308150  0.161322
    H   H18  0.201370  0.952190  0.308130  0.165401
    C   C25  0.203260  0.060150  0.067210  0.583056
    C   C26  0.201510  0.960860  0.067200  -0.195268
    O   O5   0.203860  0.093470  0.194740  -0.447608
    O   O6   0.203840  0.093470  0.939680  -0.388549
    C   C27  0.191370  0.387220  0.067230  0.576414
    C   C28  0.193130  0.486510  0.067230  -0.185375
    O   O7   0.190770  0.353900  0.939690  -0.358257
    O   O8   0.190800  0.353890  0.194760  -0.476047
    C   C29  0.140560  0.284610  0.643860  0.338797
    C   C30  0.140580  0.284610  0.490520  -0.162098
    C   C31  0.254080  0.162750  0.490590  0.306317
    C   C32  0.254060  0.162760  0.643920  -0.117588
    F   F7   0.085630  0.343390  0.718340  -0.132412
    F   F8   0.309070  0.104040  0.416030  -0.135283
    H   H19  0.094380  0.334230  0.428090  0.180890
    H   H20  0.300270  0.113130  0.706360  0.170199
    N   N5   0.197300  0.223690  0.720550  -0.084294
    N   N6   0.197330  0.223680  0.413880  -0.069283
