data_DB6-cuf_1636_repeat
_audit_creation_date              2024-02-23
_audit_creation_method            'Materials Studio'
_symmetry_space_group_name_H-M    'P1'
_symmetry_Int_Tables_number       1
_symmetry_cell_setting            triclinic
loop_
_symmetry_equiv_pos_as_xyz
  x,y,z
_cell_length_a                    14.8535
_cell_length_b                    9.0652
_cell_length_c                    14.5863
_cell_angle_alpha                 89.9994
_cell_angle_beta                  90.0091
_cell_angle_gamma                 84.3180
loop_
_atom_site_label
_atom_site_type_symbol
_atom_site_fract_x
_atom_site_fract_y
_atom_site_fract_z
_atom_site_U_iso_or_equiv
_atom_site_adp_type
_atom_site_occupancy
Cu1    Cu    0.31079   0.05406   0.03146   0.00000  Uiso   1.00
Cu2    Cu    0.31083   0.05405   0.21178   0.00000  Uiso   1.00
C1     C     0.62268   0.04819   0.03850   0.00000  Uiso   1.00
C2     C     0.62270   0.04818   0.20474   0.00000  Uiso   1.00
C3     C     0.71676   0.05112   0.20474   0.00000  Uiso   1.00
C4     C     0.76378   0.05259   0.12162   0.00000  Uiso   1.00
C5     C     0.71674   0.05112   0.03850   0.00000  Uiso   1.00
C6     C     0.76380   0.05257   0.28786   0.00000  Uiso   1.00
C7     C     0.85786   0.05551   0.28787   0.00000  Uiso   1.00
C8     C     0.90488   0.05699   0.20475   0.00000  Uiso   1.00
C9     C     0.85784   0.05552   0.12162   0.00000  Uiso   1.00
C10    C     0.90486   0.05699   0.03850   0.00000  Uiso   1.00
C11    C     0.85782   0.05554   0.95537   0.00000  Uiso   1.00
C12    C     0.76376   0.05260   0.95538   0.00000  Uiso   1.00
C13    C     0.99894   0.05992   0.20475   0.00000  Uiso   1.00
C14    C     0.99892   0.05992   0.03850   0.00000  Uiso   1.00
O1     O     0.90547   0.05556   0.87221   0.00000  Uiso   1.00
C15    C     0.90602   0.92217   0.81962   0.00000  Uiso   1.00
H1     H     0.97717   0.87661   0.80783   0.00000  Uiso   1.00
H2     H     0.87377   0.94816   0.75216   0.00000  Uiso   1.00
H3     H     0.87013   0.83518   0.85397   0.00000  Uiso   1.00
O2     O     0.71607   0.05256   0.87221   0.00000  Uiso   1.00
C16    C     0.71556   0.18596   0.81963   0.00000  Uiso   1.00
H4     H     0.64441   0.23151   0.80784   0.00000  Uiso   1.00
H5     H     0.74771   0.16008   0.75217   0.00000  Uiso   1.00
H6     H     0.75140   0.27294   0.85397   0.00000  Uiso   1.00
O3     O     0.90556   0.05554   0.37103   0.00000  Uiso   1.00
C17    C     0.90607   0.92214   0.42361   0.00000  Uiso   1.00
H7     H     0.87384   0.94813   0.49108   0.00000  Uiso   1.00
H8     H     0.97722   0.87659   0.43541   0.00000  Uiso   1.00
H9     H     0.87023   0.83516   0.38927   0.00000  Uiso   1.00
O4     O     0.71616   0.05254   0.37104   0.00000  Uiso   1.00
C18    C     0.71560   0.18593   0.42362   0.00000  Uiso   1.00
H10    H     0.64446   0.23149   0.43541   0.00000  Uiso   1.00
H11    H     0.75150   0.27292   0.38927   0.00000  Uiso   1.00
H12    H     0.74785   0.15994   0.49108   0.00000  Uiso   1.00
H13    H     0.03720   0.06111   0.97082   0.00000  Uiso   1.00
H14    H     0.58437   0.04701   0.97081   0.00000  Uiso   1.00
H15    H     0.58443   0.04699   0.27241   0.00000  Uiso   1.00
H16    H     0.03724   0.06110   0.27243   0.00000  Uiso   1.00
C19    C     0.14607   0.06450   0.12163   0.00000  Uiso   1.00
C20    C     0.04596   0.06139   0.12163   0.00000  Uiso   1.00
O5     O     0.17965   0.06555   0.04180   0.00000  Uiso   1.00
O6     O     0.17967   0.06554   0.20145   0.00000  Uiso   1.00
C21    C     0.47555   0.04361   0.12162   0.00000  Uiso   1.00
C22    C     0.57566   0.04672   0.12161   0.00000  Uiso   1.00
O7     O     0.44197   0.04258   0.20145   0.00000  Uiso   1.00
O8     O     0.44195   0.04254   0.04179   0.00000  Uiso   1.00
C23    C     0.31520   0.78434   0.12162   0.00000  Uiso   1.00
C24    C     0.31208   0.62055   0.12162   0.00000  Uiso   1.00
O9     O     0.31626   0.83929   0.20145   0.00000  Uiso   1.00
O10    O     0.31623   0.83930   0.04179   0.00000  Uiso   1.00
C25    C     0.30642   0.32377   0.12162   0.00000  Uiso   1.00
C26    C     0.30955   0.48755   0.12162   0.00000  Uiso   1.00
O11    O     0.30539   0.26881   0.20145   0.00000  Uiso   1.00
O12    O     0.30537   0.26881   0.04179   0.00000  Uiso   1.00
C27    C     0.25046   0.15443   0.66960   0.00000  Uiso   1.00
C28    C     0.25047   0.15443   0.57362   0.00000  Uiso   1.00
C29    C     0.37117   0.95368   0.57365   0.00000  Uiso   1.00
C30    C     0.37116   0.95368   0.66963   0.00000  Uiso   1.00
C31    C     0.31080   0.05406   0.71760   0.00000  Uiso   1.00
C32    C     0.31082   0.05405   0.52564   0.00000  Uiso   1.00
C33    C     0.31083   0.05405   0.42157   0.00000  Uiso   1.00
C34    C     0.31079   0.05406   0.82168   0.00000  Uiso   1.00
N1     N     0.43406   0.84908   0.52690   0.00000  Uiso   1.00
H17    H     0.43799   0.84254   0.45560   0.00000  Uiso   1.00
H18    H     0.47856   0.77507   0.56400   0.00000  Uiso   1.00
N2     N     0.18756   0.25903   0.71635   0.00000  Uiso   1.00
H19    H     0.18363   0.26557   0.78765   0.00000  Uiso   1.00
H20    H     0.14306   0.33304   0.67925   0.00000  Uiso   1.00
H21    H     0.20133   0.23617   0.53454   0.00000  Uiso   1.00
H22    H     0.42030   0.87194   0.70871   0.00000  Uiso   1.00
N3     N     0.31078   0.05406   0.90463   0.00000  Uiso   1.00
N4     N     0.31084   0.05405   0.33862   0.00000  Uiso   1.00
