# Generated by REPEAT Assigner based on pymatgen
data_DB7-ddmof_21919
_audit_creation_date              2022-05-24
_audit_creation_method            REPEAT_Assigner
_cell_length_a                    46.305040
_cell_length_b                    44.056110
_cell_length_c                    25.889270
_cell_angle_alpha                 89.960490
_cell_angle_beta                  89.959340
_cell_angle_gamma                 90.481590
_cell_volume                      52812.735194
_symmetry_space_group_name_H-M    P1
_symmetry_Int_Tables_number       1
loop_
    _symmetry_equiv_pos_site_id
    _symmetry_equiv_pos_as_xyz
    1  x,y,z
loop_
    _atom_site_type_symbol
    _atom_site_label
    _atom_site_fract_x
    _atom_site_fract_y
    _atom_site_fract_z
    _atom_type_partial_charge
    C   C1    0.502880  0.567220  0.046300  0.795504
    C   C2    0.429570  0.523330  0.053500  0.756022
    C   C3    0.523470  0.493550  0.108780  0.557427
    C   C4    0.478930  0.462080  0.956670  0.732874
    C   C5    0.381950  0.075870  0.012820  0.778032
    C   C6    0.455790  0.062520  0.940040  0.882295
    C   C7    0.446630  0.091890  0.109670  0.559382
    C   C8    0.457310  0.160550  0.968170  0.830493
    C   C9    0.546030  0.995950  0.707800  0.352864
    C   C10   0.566100  0.975870  0.729210  -0.374252
    C   C11   0.565890  0.970350  0.782600  0.253956
    C   C12   0.542590  0.980600  0.812000  -0.425603
    C   C13   0.526670  0.004990  0.793550  0.350185
    C   C14   0.527090  0.011610  0.740420  -0.363349
    C   C15   0.526560  0.984450  0.623030  0.448757
    C   C16   0.526500  0.988000  0.568980  -0.108693
    C   C17   0.545830  0.008770  0.546070  0.072465
    C   C18   0.564680  0.025900  0.577250  -0.086875
    C   C19   0.564030  0.021790  0.631220  0.406092
    C   C20   0.507570  0.970980  0.537580  -0.095964
    C   C21   0.508090  0.974520  0.483900  -0.072212
    C   C22   0.527560  0.995120  0.460720  -0.150285
    C   C23   0.546350  0.012350  0.491880  0.120257
    C   C24   0.565690  0.033090  0.468940  -0.099089
    C   C25   0.583980  0.046710  0.554080  -0.114479
    C   C26   0.584490  0.050260  0.500370  -0.088295
    C   C27   0.528510  0.998860  0.406750  0.399437
    C   C28   0.565800  0.036410  0.414800  0.405823
    C   C29   0.546450  0.024370  0.330030  0.242432
    C   C30   0.564220  0.007250  0.297380  -0.327024
    C   C31   0.561370  0.009750  0.243630  0.138599
    C   C32   0.539850  0.028230  0.222810  -0.193652
    C   C33   0.523100  0.046500  0.255150  0.229054
    C   C34   0.526740  0.044900  0.308830  -0.273032
    C   C35   0.706910  0.945080  0.043970  0.608089
    C   C36   0.658580  0.939950  0.913800  0.773501
    C   C37   0.628040  0.958230  0.080140  0.690243
    C   C38   0.626620  0.862290  0.027500  0.969153
    C   C39   0.047530  0.633650  0.956090  0.660999
    C   C40   0.042020  0.573980  0.841820  0.856079
    C   C41   0.053200  0.553830  0.016120  0.798628
    C   C42   0.133560  0.560920  0.926800  0.728493
    C   C43   0.949960  0.489580  0.625740  0.272347
    C   C44   0.969810  0.506720  0.654500  -0.266780
    C   C45   0.965950  0.510310  0.707840  0.172027
    C   C46   0.941080  0.498490  0.731580  -0.318728
    C   C47   0.922440  0.479260  0.703700  0.191323
    C   C48   0.926410  0.475630  0.650420  -0.328020
    C   C49   0.969640  0.460360  0.554810  0.353683
    C   C50   0.976050  0.456770  0.502030  -0.096256
    C   C51   0.966720  0.478810  0.466660  0.078586
    C   C52   0.950820  0.503810  0.484180  -0.124118
    C   C53   0.944660  0.506490  0.537190  0.443989
    C   C54   0.991850  0.431690  0.484230  -0.125591
    C   C55   0.998380  0.428760  0.431710  -0.071025
    C   C56   0.989230  0.450880  0.396160  -0.123799
    C   C57   0.973420  0.475930  0.413740  0.112942
    C   C58   0.964400  0.498170  0.378500  -0.118439
    C   C59   0.941580  0.525860  0.448610  -0.067676
    C   C60   0.948350  0.523090  0.396210  -0.111021
    C   C61   0.995490  0.448300  0.343130  0.429321
    C   C62   0.971480  0.495040  0.325970  0.327991
    C   C63   0.990970  0.466000  0.254760  0.252177
    C   C64   0.013170  0.482230  0.229930  -0.401213
    C   C65   0.015080  0.482090  0.175920  0.283735
    C   C66   0.995450  0.464740  0.146980  -0.234214
    C   C67   0.972980  0.448950  0.171520  0.120241
    C   C68   0.971170  0.448980  0.225520  -0.259057
    C   C69   0.810170  0.422300  0.985510  0.623408
    C   C70   0.892550  0.417650  0.014400  0.822882
    C   C71   0.852850  0.417980  0.850680  0.822594
    C   C72   0.876420  0.329330  0.943080  0.856327
    C   C73   0.040890  0.942690  0.101060  0.830158
    C   C74   0.087980  0.013440  0.127290  0.782254
    C   C75   0.994150  0.986560  0.191030  0.547736
    C   C76   0.012310  0.055540  0.057300  0.663435
    C   C77   0.884810  0.297310  0.940210  -0.124765
    C   C78   0.905920  0.288280  0.904670  -0.056270
    C   C79   0.917280  0.259040  0.906960  0.094382
    C   C80   0.907880  0.238620  0.945260  -0.549204
    C   C81   0.874040  0.276370  0.976360  -0.014023
    C   C82   0.922850  0.209430  0.952430  1.033644
    C   C83   0.951660  0.157760  0.973770  1.050326
    C   C84   0.968090  0.131050  0.991000  -0.499551
    C   C85   0.010930  0.109850  0.030750  -0.097687
    C   C86   0.997900  0.080980  0.031140  -0.049020
    C   C87   0.970270  0.077040  0.009620  -0.055214
    C   C88   0.955410  0.101980  0.989750  -0.009498
    C   C89   0.885630  0.247190  0.979130  0.037719
    C   C90   0.996130  0.134740  0.010810  0.083849
    C   C91   0.902820  0.458550  0.731830  0.244195
    C   C92   0.914010  0.433930  0.760030  -0.097200
    C   C93   0.896080  0.417830  0.794020  -0.118726
    C   C94   0.867470  0.427020  0.802230  -0.157493
    C   C95   0.855450  0.449370  0.769670  0.025126
    C   C96   0.873270  0.465020  0.734550  -0.361171
    C   C97   0.824370  0.456580  0.772380  0.310244
    C   C98   0.803600  0.434540  0.759120  -0.203972
    C   C99   0.774190  0.441160  0.762970  -0.097833
    C   C100  0.765420  0.469780  0.779880  -0.121608
    C   C101  0.786030  0.491840  0.792910  -0.131702
    C   C102  0.815460  0.485330  0.789150  -0.191332
    C   C103  0.945310  0.428760  0.761870  0.221287
    C   C104  0.964210  0.441490  0.814070  0.032859
    C   C105  0.018960  0.429920  0.805320  0.000001
    C   C106  0.026180  0.411560  0.748670  -0.154740
    C   C107  0.999070  0.402850  0.705380  -0.226995
    C   C108  0.962340  0.410790  0.711310  -0.304327
    C   C109  0.909170  0.421700  0.062260  0.071431
    C   C110  0.931830  0.401810  0.075040  -0.093726
    C   C111  0.951410  0.409810  0.114130  -0.247022
    C   C112  0.948640  0.437420  0.140400  0.175685
    C   C113  0.924740  0.456150  0.130250  -0.041525
    C   C114  0.905060  0.448070  0.091530  -0.281399
    C   C115  0.921040  0.485030  0.158310  0.239513
    C   C116  0.904250  0.485870  0.203390  -0.165527
    C   C117  0.901670  0.512960  0.231060  -0.089267
    C   C118  0.915850  0.539240  0.213870  -0.191557
    C   C119  0.932710  0.538460  0.169080  -0.087479
    C   C120  0.935240  0.511460  0.141140  -0.235717
    C   C121  0.935690  0.372950  0.047140  0.311541
    C   C122  0.922490  0.346310  0.065740  -0.250348
    C   C123  0.929360  0.318240  0.044000  -0.093536
    C   C124  0.949230  0.316680  0.003410  -0.061994
    C   C125  0.961910  0.343230  0.983940  -0.156218
    C   C126  0.955210  0.371350  0.005740  -0.235695
    C   C127  0.045700  0.666460  0.966080  -0.075745
    C   C128  0.070820  0.684490  0.966700  -0.046369
    C   C129  0.069040  0.715630  0.976390  0.030555
    C   C130  0.042090  0.729060  0.985490  -0.544165
    C   C131  0.018760  0.679880  0.975050  0.064531
    C   C132  0.040230  0.761860  0.996380  1.045405
    C   C133  0.038110  0.821670  0.019230  1.054187
    C   C134  0.038670  0.853760  0.035320  -0.456531
    C   C135  0.065830  0.898350  0.062400  -0.077497
    C   C136  0.040010  0.913090  0.074880  -0.119742
    C   C137  0.013450  0.898490  0.065680  -0.071014
    C   C138  0.012780  0.868920  0.046070  0.012864
    C   C139  0.016970  0.710990  0.984760  0.064635
    C   C140  0.065170  0.868860  0.042650  0.052218
    C   C141  0.988360  0.525960  0.738730  0.239804
    C   C142  0.006270  0.509970  0.773930  -0.184528
    C   C143  0.028600  0.525760  0.799210  -0.105536
    C   C144  0.030040  0.557510  0.797170  -0.137873
    C   C145  0.013420  0.573080  0.760280  0.073296
    C   C146  0.993000  0.557140  0.730760  -0.335985
    C   C147  0.016810  0.606230  0.753340  0.265874
    C   C148  0.042970  0.618380  0.734860  -0.203862
    C   C149  0.046500  0.649820  0.730140  -0.104172
    C   C150  0.023980  0.669200  0.743750  -0.134266
    C   C151  0.997850  0.657180  0.762000  -0.163710
    C   C152  0.994210  0.625760  0.766780  -0.126875
    C   C153  0.999160  0.478680  0.791640  0.150063
    C   C154  0.000820  0.470750  0.857080  -0.250724
    C   C155  0.995430  0.435800  0.887380  -0.231617
    C   C156  0.987200  0.401590  0.858740  -0.187250
    C   C157  0.983370  0.398510  0.793440  0.096856
    C   C158  0.991510  0.450600  0.747830  0.042400
    C   C159  0.034560  0.503570  0.149060  0.079855
    C   C160  0.055550  0.492650  0.114320  -0.026911
    C   C161  0.065340  0.511380  0.074040  -0.265128
    C   C162  0.054030  0.540550  0.067960  0.023305
    C   C163  0.036940  0.553010  0.107580  -0.037044
    C   C164  0.027420  0.534440  0.148240  -0.242714
    C   C165  0.026860  0.584690  0.104170  0.232155
    C   C166  0.046620  0.608870  0.108880  -0.148729
    C   C167  0.037200  0.638810  0.103900  -0.122163
    C   C168  0.008040  0.644720  0.094550  -0.108373
    C   C169  0.988310  0.620700  0.089600  -0.187349
    C   C170  0.997660  0.590720  0.094240  -0.182858
    C   C171  0.065330  0.460850  0.117280  0.214690
    C   C172  0.057870  0.440180  0.078120  -0.222990
    C   C173  0.065790  0.409730  0.082370  -0.043319
    C   C174  0.081200  0.399810  0.125540  -0.139969
    C   C175  0.088720  0.420320  0.164560  -0.103112
    C   C176  0.080820  0.450800  0.160530  -0.210994
    C   C177  0.735040  0.943280  0.070090  -0.010917
    C   C178  0.758570  0.929650  0.045380  -0.185292
    C   C179  0.785890  0.930310  0.068400  0.187857
    C   C180  0.789880  0.944410  0.116650  -0.520847
    C   C181  0.738770  0.956430  0.119000  -0.059815
    C   C182  0.819180  0.947740  0.138840  1.005416
    C   C183  0.873890  0.957040  0.172310  1.061846
    C   C184  0.904270  0.964330  0.185080  -0.540346
    C   C185  0.954140  0.948290  0.193540  -0.191452
    C   C186  0.963230  0.978760  0.195750  0.195766
    C   C187  0.942540  0.001870  0.195860  -0.278193
    C   C188  0.913240  0.994720  0.190470  0.175378
    C   C189  0.765980  0.956850  0.142300  0.031976
    C   C190  0.924810  0.941110  0.188300  0.098377
    C   C191  0.593180  0.963670  0.808930  0.241524
    C   C192  0.607110  0.986110  0.839280  -0.157339
    C   C193  0.633570  0.979250  0.862520  -0.020399
    C   C194  0.642260  0.948940  0.867190  -0.176825
    C   C195  0.628860  0.926670  0.835750  0.127397
    C   C196  0.605040  0.934570  0.805220  -0.359302
    C   C197  0.638290  0.894710  0.837430  0.206894
    C   C198  0.665490  0.886680  0.818100  -0.227203
    C   C199  0.675120  0.856800  0.822800  -0.082745
    C   C200  0.657690  0.834890  0.846870  -0.134942
    C   C201  0.630530  0.842770  0.866020  -0.097751
    C   C202  0.620720  0.872550  0.861060  -0.176348
    C   C203  0.591040  0.012770  0.858890  0.143984
    C   C204  0.589700  0.017880  0.923350  -0.050600
    C   C205  0.568640  0.069960  0.947400  0.005765
    C   C206  0.560160  0.090380  0.893720  -0.211153
    C   C207  0.565270  0.075700  0.832950  -0.292094
    C   C208  0.579090  0.040380  0.817350  -0.203853
    C   C209  0.582550  0.995400  0.208850  0.210861
    C   C210  0.602220  0.013470  0.180350  -0.123135
    C   C211  0.618760  0.000290  0.141180  -0.177286
    C   C212  0.615080  0.969560  0.128440  0.041669
    C   C213  0.596480  0.951130  0.158660  -0.078328
    C   C214  0.580610  0.964150  0.199100  -0.274363
    C   C215  0.592380  0.918590  0.147000  0.303880
    C   C216  0.610590  0.896990  0.169490  -0.205210
    C   C217  0.605110  0.866010  0.162240  -0.106345
    C   C218  0.581320  0.856520  0.133020  -0.194414
    C   C219  0.563360  0.877980  0.109940  -0.093586
    C   C220  0.568860  0.908980  0.116840  -0.206179
    C   C221  0.604110  0.046610  0.188880  0.203232
    C   C222  0.615860  0.058090  0.234920  -0.196853
    C   C223  0.616040  0.089360  0.244160  -0.180636
    C   C224  0.604800  0.109260  0.207340  -0.110343
    C   C225  0.593310  0.097940  0.161220  -0.092628
    C   C226  0.592780  0.066670  0.152060  -0.149596
    C   C227  0.117720  0.022250  0.113300  0.038702
    C   C228  0.133610  0.042130  0.144910  -0.179158
    C   C229  0.161880  0.050350  0.131540  0.088860
    C   C230  0.174640  0.038580  0.086580  -0.463823
    C   C231  0.130360  0.010670  0.068200  -0.195709
    C   C232  0.204780  0.046600  0.073090  0.977474
    C   C233  0.260410  0.059180  0.048790  1.042751
    C   C234  0.290890  0.065230  0.035840  -0.434565
    C   C235  0.335580  0.092770  0.052090  -0.005135
    C   C236  0.350290  0.073540  0.017920  -0.179016
    C   C237  0.334880  0.050870  0.991250  -0.025707
    C   C238  0.305310  0.046770  0.000100  -0.016526
    C   C239  0.158650  0.018710  0.054980  0.084885
    C   C240  0.306070  0.088580  0.061070  -0.001828
    C   C241  0.471910  0.056550  0.892370  -0.135338
    C   C242  0.460230  0.036990  0.855220  0.110708
    C   C243  0.478650  0.020880  0.822830  -0.250568
    C   C244  0.508810  0.022890  0.828880  -0.030600
    C   C245  0.521060  0.043880  0.865430  0.078628
    C   C246  0.501500  0.063040  0.891820  -0.123848
    C   C247  0.549750  0.037100  0.894740  0.159288
    C   C248  0.602370  0.061410  0.891580  0.238275
    C   C249  0.618780  0.059450  0.950210  -0.363051
    C   C250  0.601860  0.043460  0.002690  -0.161353
    C   C251  0.567530  0.027300  0.005560  -0.103293
    C   C252  0.542870  0.023650  0.956240  -0.193475
    C   C253  0.428710  0.031780  0.852380  0.120900
    C   C254  0.410580  0.054810  0.834210  -0.142136
    C   C255  0.380590  0.050810  0.835510  -0.125010
    C   C256  0.368630  0.023830  0.854720  -0.094580
    C   C257  0.386620  0.000770  0.872580  -0.141240
    C   C258  0.416620  0.004670  0.871400  -0.114755
    C   C259  0.463480  0.090890  0.158510  0.098621
    C   C260  0.492510  0.101440  0.160660  -0.101340
    C   C261  0.511160  0.089830  0.198280  -0.192904
    C   C262  0.501630  0.067100  0.232220  0.029675
    C   C263  0.471880  0.060240  0.235280  0.016875
    C   C264  0.452830  0.073030  0.199460  -0.253896
    C   C265  0.460840  0.038150  0.273510  0.157701
    C   C266  0.450990  0.048190  0.321780  -0.133569
    C   C267  0.442270  0.027110  0.359210  -0.097896
    C   C268  0.443060  0.996040  0.348390  -0.151169
    C   C269  0.452560  0.985980  0.300120  -0.069333
    C   C270  0.461410  0.006960  0.262650  -0.227129
    C   C271  0.503820  0.124150  0.123670  0.255887
    C   C272  0.523130  0.115370  0.084680  -0.208536
    C   C273  0.534670  0.137110  0.050950  0.050417
    C   C274  0.527070  0.167610  0.056070  -0.193293
    C   C275  0.507640  0.176390  0.094510  -0.058743
    C   C276  0.496150  0.154770  0.128520  -0.244592
    C   C277  0.483790  0.434590  0.925860  -0.058716
    C   C278  0.460020  0.417900  0.907510  -0.127295
    C   C279  0.463500  0.387960  0.891000  0.115609
    C   C280  0.490810  0.374350  0.893060  -0.508253
    C   C281  0.511520  0.422030  0.923070  -0.053799
    C   C282  0.493320  0.341090  0.888070  1.024407
    C   C283  0.488210  0.280080  0.896410  1.069164
    C   C284  0.480370  0.248600  0.909970  -0.443787
    C   C285  0.494410  0.197990  0.937000  0.077455
    C   C286  0.465300  0.190390  0.946080  -0.190815
    C   C287  0.443760  0.211710  0.935140  -0.032950
    C   C288  0.451250  0.240570  0.917030  -0.001957
    C   C289  0.515010  0.391990  0.906850  -0.010312
    C   C290  0.501920  0.227100  0.919570  -0.066595
    C   C291  0.398780  0.526390  0.040230  0.051526
    C   C292  0.390360  0.546240  0.000680  -0.189005
    C   C293  0.361280  0.548540  0.986920  0.094130
    C   C294  0.340240  0.530840  0.012370  -0.488748
    C   C295  0.377770  0.508960  0.066130  -0.183380
    C   C296  0.309500  0.533010  0.997330  0.981451
    C   C297  0.253350  0.538640  0.970550  1.067865
    C   C298  0.222820  0.543320  0.956780  -0.458211
    C   C299  0.185740  0.574050  0.916630  -0.018437
    C   C300  0.164320  0.553970  0.934830  -0.087031
    C   C301  0.172370  0.528130  0.963020  -0.032425
    C   C302  0.201470  0.522910  0.974110  -0.014711
    C   C303  0.348680  0.511090  0.052170  0.096705
    C   C304  0.214830  0.568710  0.927430  -0.021975
    C   C305  0.553400  0.482670  0.114260  0.184403
    C   C306  0.560540  0.453300  0.097790  -0.257588
    C   C307  0.589430  0.444660  0.094040  0.180542
    C   C308  0.611600  0.465220  0.107180  -0.558473
    C   C309  0.575460  0.502600  0.130360  -0.192858
    C   C310  0.642180  0.457570  0.096850  1.007369
    C   C311  0.696760  0.443890  0.068390  1.113874
    C   C312  0.725990  0.436610  0.049840  -0.488530
    C   C313  0.757320  0.410100  0.989870  -0.053694
    C   C314  0.781360  0.426110  0.009210  -0.080525
    C   C315  0.777610  0.446740  0.050030  -0.048988
    C   C316  0.750080  0.452030  0.070050  0.008379
    C   C317  0.604380  0.493890  0.127040  0.129294
    C   C318  0.729790  0.415280  0.010190  0.071898
    C   C319  0.614800  0.831080  0.025720  -0.205188
    C   C320  0.587480  0.825520  0.003950  0.148269
    C   C321  0.576020  0.796100  0.002950  -0.066963
    C   C322  0.591770  0.771840  0.023450  -0.459273
    C   C323  0.630630  0.806770  0.046050  0.034616
    C   C324  0.579170  0.741000  0.023820  1.092243
    C   C325  0.555520  0.684660  0.022070  1.039438
    C   C326  0.542550  0.653830  0.021820  -0.526481
    C   C327  0.499820  0.621420  0.020690  -0.141027
    C   C328  0.516820  0.596130  0.032270  -0.090900
    C   C329  0.546890  0.599470  0.036050  -0.151416
    C   C330  0.559730  0.628210  0.031090  0.134436
    C   C331  0.619200  0.777270  0.044760  -0.064696
    C   C332  0.512610  0.650070  0.015100  0.113182
    H   H1    0.583010  0.966510  0.705200  0.165257
    H   H2    0.513160  0.028980  0.724730  0.164616
    H   H3    0.513820  0.058920  0.334090  0.140914
    H   H4    0.580250  0.992290  0.313790  0.154035
    H   H5    0.598660  0.060130  0.577510  0.155949
    H   H6    0.599530  0.066380  0.483370  0.156224
    H   H7    0.492430  0.954960  0.554580  0.157862
    H   H8    0.493290  0.961230  0.460490  0.131382
    H   H9    0.536960  0.029340  0.181260  0.073744
    H   H10   0.540700  0.973920  0.852210  0.142264
    H   H11   0.988650  0.516430  0.635640  0.137035
    H   H12   0.912050  0.460900  0.628640  0.160057
    H   H13   0.953340  0.437490  0.244620  0.128938
    H   H14   0.027900  0.496150  0.252450  0.161961
    H   H15   0.929220  0.545230  0.461410  0.147210
    H   H16   0.941020  0.540320  0.369490  0.133317
    H   H17   0.999150  0.414440  0.510930  0.147811
    H   H18   0.010560  0.409280  0.418850  0.151251
    H   H19   0.996250  0.465520  0.105110  0.110566
    H   H20   0.937760  0.501740  0.772670  0.093404
    H   H21   0.914110  0.304190  0.876170  0.083939
    H   H22   0.933910  0.252540  0.879780  0.025118
    H   H23   0.878080  0.231710  0.008810  0.060829
    H   H24   0.857710  0.283130  0.003930  0.085925
    H   H25   0.006180  0.157020  0.012020  0.057834
    H   H26   0.032370  0.113110  0.046650  0.114330
    H   H27   0.933970  0.098750  0.973870  0.060958
    H   H28   0.959990  0.054860  0.009510  0.121418
    H   H29   0.905230  0.400090  0.817850  0.094997
    H   H30   0.864410  0.483050  0.710990  0.150520
    H   H31   0.036710  0.435190  0.831910  0.140266
    H   H32   0.048170  0.405320  0.739790  0.151213
    H   H33   0.005570  0.391280  0.670490  0.192621
    H   H34   0.948730  0.403700  0.679520  0.178235
    H   H35   0.952660  0.452910  0.845420  0.037014
    H   H36   0.810250  0.412300  0.746070  0.129632
    H   H37   0.758210  0.424110  0.752900  0.116965
    H   H38   0.831310  0.502450  0.799730  0.099036
    H   H39   0.779200  0.513970  0.806040  0.132843
    H   H40   0.742650  0.474850  0.782900  0.126560
    H   H41   0.969560  0.395190  0.122460  0.121603
    H   H42   0.887290  0.463060  0.082480  0.149261
    H   H43   0.919400  0.297680  0.058750  0.115757
    H   H44   0.954690  0.294910  0.986900  0.108001
    H   H45   0.977170  0.341980  0.952370  0.111473
    H   H46   0.965580  0.391790  0.991200  0.134964
    H   H47   0.907440  0.347320  0.097740  0.124026
    H   H48   0.893490  0.465500  0.217230  0.097183
    H   H49   0.888880  0.513530  0.266050  0.119537
    H   H50   0.948490  0.510950  0.106640  0.087807
    H   H51   0.943870  0.558750  0.156110  0.131662
    H   H52   0.913980  0.560140  0.235520  0.148973
    H   H53   0.091740  0.674350  0.960260  0.096159
    H   H54   0.088640  0.729220  0.977470  0.087141
    H   H55   0.996030  0.721080  0.991300  0.062670
    H   H56   0.999190  0.666250  0.974250  0.018070
    H   H57   0.085300  0.857440  0.034470  0.074362
    H   H58   0.086440  0.909560  0.068750  0.117021
    H   H59   0.992180  0.857670  0.039890  0.080556
    H   H60   0.993380  0.909660  0.075180  0.116351
    H   H61   0.042720  0.513670  0.825370  0.137835
    H   H62   0.980110  0.569170  0.702520  0.141871
    H   H63   0.997390  0.435630  0.929010  0.191315
    H   H64   0.984360  0.381650  0.882600  0.185906
    H   H65   0.978240  0.376310  0.776550  0.091408
    H   H66   0.992140  0.455750  0.706480  0.115554
    H   H67   0.005550  0.489700  0.882320  0.108852
    H   H68   0.060550  0.603510  0.724460  0.118277
    H   H69   0.066710  0.659160  0.716040  0.132968
    H   H70   0.974020  0.616610  0.781450  0.090828
    H   H71   0.980460  0.672210  0.772610  0.142277
    H   H72   0.026770  0.693520  0.740170  0.130670
    H   H73   0.079750  0.502320  0.044910  0.157874
    H   H74   0.012300  0.543270  0.176420  0.143691
    H   H75   0.059860  0.393790  0.052320  0.065978
    H   H76   0.087260  0.376210  0.128800  0.122398
    H   H77   0.100580  0.412580  0.198010  0.134925
    H   H78   0.086480  0.466520  0.191130  0.121484
    H   H79   0.045570  0.447620  0.044930  0.132963
    H   H80   0.069260  0.604440  0.115940  0.099382
    H   H81   0.052510  0.657410  0.107010  0.125123
    H   H82   0.982360  0.572200  0.089430  0.130771
    H   H83   0.965810  0.625310  0.081830  0.117070
    H   H84   0.000790  0.667900  0.090700  0.125112
    H   H85   0.755900  0.919350  0.007670  0.145820
    H   H86   0.804050  0.920600  0.048060  0.037841
    H   H87   0.768520  0.967140  0.180030  0.059680
    H   H88   0.720610  0.966500  0.138870  0.105411
    H   H89   0.918160  0.917540  0.185470  0.045757
    H   H90   0.969850  0.930200  0.193610  0.166164
    H   H91   0.897670  0.012890  0.188520  0.056941
    H   H92   0.949230  0.025450  0.198390  0.190549
    H   H93   0.644760  0.996740  0.884380  0.020443
    H   H94   0.594670  0.917550  0.781140  0.139291
    H   H95   0.565050  0.079900  0.985610  0.171572
    H   H96   0.551590  0.113010  0.897950  0.166509
    H   H97   0.559420  0.090140  0.800900  0.181163
    H   H98   0.582220  0.036080  0.776660  0.137304
    H   H99   0.597880  0.999940  0.948680  0.023529
    H   H100  0.679240  0.903620  0.799970  0.119872
    H   H101  0.696150  0.850660  0.808040  0.119529
    H   H102  0.599830  0.878610  0.876670  0.128813
    H   H103  0.617160  0.825840  0.885000  0.095476
    H   H104  0.665260  0.811830  0.850770  0.123858
    H   H105  0.633640  0.014310  0.119030  0.124519
    H   H106  0.565690  0.950210  0.221320  0.118796
    H   H107  0.624840  0.098160  0.279910  0.175633
    H   H108  0.604920  0.133450  0.214600  0.113265
    H   H109  0.584470  0.113350  0.132900  0.070666
    H   H110  0.583010  0.057990  0.117000  0.124282
    H   H111  0.624420  0.042780  0.263760  0.149658
    H   H112  0.628780  0.904200  0.192880  0.119927
    H   H113  0.619220  0.849370  0.179480  0.117350
    H   H114  0.554690  0.925500  0.099320  0.127240
    H   H115  0.545210  0.870590  0.086690  0.107534
    H   H116  0.577030  0.832540  0.127660  0.136058
    H   H117  0.124000  0.051430  0.179560  0.180088
    H   H118  0.173780  0.066000  0.155970  0.060621
    H   H119  0.168270  0.009130  0.020560  0.070451
    H   H120  0.118400  0.995070  0.043760  0.148813
    H   H121  0.295070  0.103260  0.088130  0.086812
    H   H122  0.347150  0.110410  0.072840  0.106107
    H   H123  0.293790  0.028730  0.980240  0.081047
    H   H124  0.345880  0.036120  0.964310  0.118084
    H   H125  0.469550  0.005700  0.794000  0.134400
    H   H126  0.509560  0.078240  0.921340  0.120500
    H   H127  0.366630  0.068690  0.821900  0.128228
    H   H128  0.345410  0.020860  0.855990  0.113203
    H   H129  0.377320  0.979960  0.887670  0.118455
    H   H130  0.430430  0.986900  0.886060  0.096796
    H   H131  0.419700  0.075920  0.819880  0.100299
    H   H132  0.613610  0.072970  0.859750  0.064884
    H   H133  0.640330  0.068710  0.954610  0.165259
    H   H134  0.521850  0.013990  0.964760  0.158084
    H   H135  0.560870  0.018550  0.042790  0.106769
    H   H136  0.614070  0.043390  0.038250  0.108445
    H   H137  0.533670  0.096780  0.198550  0.140371
    H   H138  0.430120  0.066790  0.200650  0.166059
    H   H139  0.549610  0.130370  0.021010  0.060080
    H   H140  0.536320  0.184460  0.030370  0.116012
    H   H141  0.501640  0.199980  0.098160  0.126805
    H   H142  0.481330  0.161760  0.158560  0.132381
    H   H143  0.529260  0.091800  0.080750  0.044455
    H   H144  0.450620  0.072220  0.330580  0.097530
    H   H145  0.435030  0.034860  0.396670  0.097711
    H   H146  0.469150  0.999010  0.225590  0.089408
    H   H147  0.453280  0.961910  0.291890  0.133692
    H   H148  0.436460  0.979760  0.377510  0.135796
    H   H149  0.438580  0.427560  0.908690  0.099291
    H   H150  0.444670  0.374820  0.879670  0.074295
    H   H151  0.536330  0.382050  0.907240  0.060902
    H   H152  0.530110  0.434840  0.936580  0.128039
    H   H153  0.524470  0.232970  0.913810  0.050971
    H   H154  0.511210  0.181540  0.943900  0.083514
    H   H155  0.434430  0.257000  0.909930  0.111377
    H   H156  0.421200  0.206040  0.941120  0.083081
    H   H157  0.406330  0.560060  0.980780  0.145240
    H   H158  0.355110  0.564220  0.956730  0.058493
    H   H159  0.332780  0.497100  0.071870  0.065808
    H   H160  0.384010  0.493370  0.096430  0.171022
    H   H161  0.231100  0.584650  0.913880  0.084785
    H   H162  0.179830  0.593920  0.894490  0.086683
    H   H163  0.207400  0.503060  0.996320  0.064118
    H   H164  0.156080  0.512470  0.977340  0.117139
    H   H165  0.543730  0.437440  0.086300  0.176674
    H   H166  0.594530  0.422340  0.079290  0.057655
    H   H167  0.621160  0.509690  0.138810  0.038970
    H   H168  0.570310  0.525230  0.143650  0.164608
    H   H169  0.711340  0.403300  0.994170  0.066457
    H   H170  0.759810  0.394150  0.958390  0.109356
    H   H171  0.747460  0.468230  0.101150  0.080640
    H   H172  0.795980  0.458850  0.066040  0.097112
    H   H173  0.575080  0.843980  0.987810  0.052930
    H   H174  0.554930  0.792150  0.986020  0.074333
    H   H175  0.631460  0.758760  0.061090  0.089248
    H   H176  0.651620  0.810730  0.063330  0.072877
    H   H177  0.499160  0.669420  0.006480  0.047160
    H   H178  0.476610  0.618980  0.017050  0.150350
    H   H179  0.582850  0.630640  0.036130  0.034036
    H   H180  0.560200  0.580040  0.044990  0.142416
    N   N1    0.545390  0.001010  0.652950  -0.081204
    N   N2    0.547170  0.019580  0.384920  -0.016997
    N   N3    0.954520  0.485180  0.571430  -0.029102
    N   N4    0.986200  0.470020  0.309120  0.004232
    N   N5    0.951370  0.207100  0.940970  -0.354105
    N   N6    0.965550  0.181650  0.951420  -0.456788
    N   N7    0.922980  0.159800  0.984130  -0.354915
    N   N8    0.908770  0.185250  0.973540  -0.426395
    N   N9    0.059020  0.781680  0.973920  -0.408738
    N   N10   0.058010  0.811150  0.985250  -0.400498
    N   N11   0.019030  0.801920  0.041070  -0.417016
    N   N12   0.020060  0.772440  0.029800  -0.396375
    N   N13   0.840500  0.928340  0.125110  -0.433189
    N   N14   0.867460  0.932980  0.141460  -0.360085
    N   N15   0.852400  0.975880  0.187330  -0.478702
    N   N16   0.825480  0.971340  0.170750  -0.311565
    N   N17   0.224070  0.053810  0.110710  -0.368882
    N   N18   0.251460  0.060080  0.098720  -0.423777
    N   N19   0.241130  0.052110  0.011120  -0.419511
    N   N20   0.213690  0.045990  0.023080  -0.357469
    N   N21   0.510540  0.325490  0.921050  -0.366392
    N   N22   0.508020  0.295430  0.925150  -0.410427
    N   N23   0.472360  0.295440  0.861020  -0.452287
    N   N24   0.474920  0.325480  0.856840  -0.409853
    N   N25   0.302180  0.541180  0.948480  -0.341665
    N   N26   0.274510  0.544050  0.935350  -0.439942
    N   N27   0.260630  0.530110  0.019220  -0.410483
    N   N28   0.288300  0.527390  0.032440  -0.378565
    N   N29   0.650170  0.428160  0.090830  -0.384125
    N   N30   0.677040  0.421430  0.076630  -0.443704
    N   N31   0.688990  0.473230  0.075520  -0.460427
    N   N32   0.662080  0.479980  0.089360  -0.340456
    N   N33   0.550930  0.736740  0.036100  -0.455129
    N   N34   0.539310  0.708990  0.035420  -0.377891
    N   N35   0.583810  0.688930  0.009810  -0.382162
    N   N36   0.595480  0.716700  0.010750  -0.431971
    O   O1    0.506240  0.480800  0.074950  -0.622783
    O   O2    0.482220  0.566950  0.081210  -0.765050
    O   O3    0.514970  0.517890  0.133340  -0.764788
    O   O4    0.449270  0.526030  0.017320  -0.603218
    O   O5    0.437280  0.517160  0.101190  -0.837608
    O   O6    0.461290  0.461550  0.995600  -0.637049
    O   O7    0.510920  0.541850  0.023800  -0.601852
    O   O8    0.497190  0.484550  0.956350  -0.714175
    O   O9    0.453360  0.111480  0.073250  -0.463318
    O   O10   0.397070  0.051380  0.003540  -0.723557
    O   O11   0.428500  0.069720  0.099300  -0.718918
    O   O12   0.437730  0.085280  0.942390  -0.584671
    O   O13   0.461660  0.046630  0.981510  -0.852074
    O   O14   0.475280  0.138110  0.970350  -0.740340
    O   O15   0.395170  0.101550  0.024100  -0.559913
    O   O16   0.431440  0.154680  0.984410  -0.673525
    O   O17   0.581490  0.037840  0.660960  -0.535541
    O   O18   0.508630  0.964920  0.644970  -0.547159
    O   O19   0.511450  0.982360  0.377010  -0.463653
    O   O20   0.583750  0.055870  0.392760  -0.540141
    O   O21   0.643330  0.933210  0.080270  -0.542494
    O   O22   0.691540  0.969930  0.047950  -0.670348
    O   O23   0.627080  0.975230  0.038550  -0.730097
    O   O24   0.648740  0.917110  0.941340  -0.582371
    O   O25   0.675690  0.959850  0.935820  -0.700421
    O   O26   0.611070  0.885600  0.015400  -0.759930
    O   O27   0.696740  0.921520  0.018370  -0.542845
    O   O28   0.653990  0.867740  0.032960  -0.747477
    O   O29   0.073100  0.573420  0.001580  -0.621714
    O   O30   0.028480  0.615060  0.976880  -0.595255
    O   O31   0.031430  0.547280  0.985630  -0.776801
    O   O32   0.066930  0.565680  0.861320  -0.658074
    O   O33   0.024570  0.590440  0.869700  -0.797152
    O   O34   0.113620  0.540040  0.928680  -0.704947
    O   O35   0.067090  0.623210  0.923910  -0.571225
    O   O36   0.124360  0.588560  0.925590  -0.657588
    O   O37   0.929610  0.529730  0.554130  -0.561490
    O   O38   0.978520  0.440020  0.588510  -0.512452
    O   O39   0.010220  0.424870  0.326030  -0.543961
    O   O40   0.964000  0.516260  0.292770  -0.430469
    O   O41   0.859290  0.391800  0.871690  -0.626776
    O   O42   0.830240  0.443220  0.992610  -0.661168
    O   O43   0.841190  0.438990  0.879420  -0.766640
    O   O44   0.871990  0.397000  0.012090  -0.609656
    O   O45   0.895380  0.437750  0.977340  -0.837258
    O   O46   0.895240  0.351150  0.938890  -0.655760
    O   O47   0.815730  0.398010  0.957670  -0.508467
    O   O48   0.849840  0.337610  0.948650  -0.734000
    O   O49   0.001980  0.010630  0.164640  -0.603671
    O   O50   0.060930  0.948120  0.135970  -0.777367
    O   O51   0.013790  0.967180  0.205790  -0.765056
    O   O52   0.069090  0.007600  0.090870  -0.601344
    O   O53   0.080840  0.009700  0.176020  -0.851190
    O   O54   0.029140  0.059930  0.096710  -0.645148
    O   O55   0.021610  0.963470  0.089760  -0.625534
    O   O56   0.005800  0.027460  0.047550  -0.663250
    Zn  Zn1   0.485930  0.505420  0.023800  1.205318
    Zn  Zn2   0.474700  0.530250  0.128970  1.337805
    Zn  Zn3   0.435370  0.110400  0.004290  1.086245
    Zn  Zn4   0.435880  0.044250  0.040190  1.221759
    Zn  Zn5   0.655040  0.912910  0.015530  1.150805
    Zn  Zn6   0.660540  0.981410  0.994400  1.094419
    Zn  Zn7   0.080970  0.581120  0.928000  1.183525
    Zn  Zn8   0.015230  0.576730  0.938340  1.159289
    Zn  Zn9   0.855350  0.383640  0.946270  1.132700
    Zn  Zn10  0.862270  0.452460  0.939280  1.197556
    Zn  Zn11  0.028040  0.006660  0.105460  1.189867
    Zn  Zn12  0.054590  0.977040  0.197450  1.336301
