# Generated by REPEAT Assigner based on pymatgen
data_DB7-ddmof_21765
_audit_creation_date              2022-05-24
_audit_creation_method            REPEAT_Assigner
_cell_length_a                    20.915210
_cell_length_b                    18.795780
_cell_length_c                    62.435150
_cell_angle_alpha                 88.793880
_cell_angle_beta                  88.923830
_cell_angle_gamma                 106.812170
_cell_volume                      23482.150605
_symmetry_space_group_name_H-M    P1
_symmetry_Int_Tables_number       1
loop_
    _symmetry_equiv_pos_site_id
    _symmetry_equiv_pos_as_xyz
    1  x,y,z
loop_
    _atom_site_type_symbol
    _atom_site_label
    _atom_site_fract_x
    _atom_site_fract_y
    _atom_site_fract_z
    _atom_type_partial_charge
    Zn  Zn1   0.589480  0.320240  0.906860  1.426918
    Zn  Zn2   0.680030  0.424630  0.943660  1.257986
    C   C1    0.788260  0.241850  0.884720  0.621034
    Zn  Zn3   0.744450  0.349640  0.910310  1.313242
    Zn  Zn4   0.644950  0.221840  0.878500  1.122625
    H   H1    0.662470  0.285150  0.939760  0.366083
    C   C2    0.737780  0.496960  0.899090  0.872178
    O   O1    0.549000  0.192560  0.871640  -0.732353
    O   O2    0.524910  0.300310  0.880040  -0.604699
    O   O3    0.665950  0.327660  0.929730  -1.118758
    O   O4    0.585520  0.425420  0.947160  -0.766506
    O   O5    0.536290  0.223230  0.919370  -0.751160
    O   O6    0.553770  0.405930  0.912320  -0.728476
    O   O7    0.617430  0.170230  0.910050  -0.529940
    O   O8    0.776810  0.475940  0.947320  -0.750091
    H   H2    0.671380  0.361670  0.876110  0.353044
    O   O9    0.811730  0.379100  0.935820  -0.619694
    O   O10   0.667220  0.325240  0.888120  -1.117531
    O   O11   0.729170  0.194280  0.882080  -0.575831
    O   O12   0.776270  0.452590  0.899070  -0.789649
    O   O13   0.799210  0.284630  0.901490  -0.494949
    O   O14   0.687310  0.485860  0.913000  -0.577818
    C   C3    0.513730  0.239630  0.868740  0.678753
    C   C4    0.548430  0.434450  0.931180  0.848533
    C   C5    0.559410  0.165310  0.919350  0.881243
    C   C6    0.825270  0.445800  0.943690  0.578574
    Zn  Zn5   0.655680  0.325010  0.475840  1.399461
    Zn  Zn6   0.551310  0.210420  0.444650  1.193664
    C   C7    0.710260  0.109110  0.508260  0.632846
    Zn  Zn7   0.620820  0.150200  0.479280  1.290699
    Zn  Zn8   0.741150  0.271260  0.508230  1.181209
    H   H3    0.676380  0.225470  0.446450  0.419540
    C   C8    0.494320  0.169400  0.491380  0.814941
    O   O15   0.772990  0.380550  0.511120  -0.718804
    O   O16   0.680350  0.409730  0.499300  -0.516425
    O   O17   0.640710  0.228310  0.456760  -1.115842
    O   O18   0.554670  0.313630  0.436710  -0.769330
    O   O19   0.743820  0.370990  0.461540  -0.653920
    O   O20   0.581260  0.369130  0.468850  -0.759425
    O   O21   0.788990  0.285230  0.476480  -0.593044
    O   O22   0.501420  0.103850  0.446040  -0.688083
    H   H4    0.616780  0.249680  0.509480  0.327333
    O   O23   0.586770  0.061370  0.457560  -0.751308
    O   O24   0.648680  0.246800  0.497850  -1.116983
    O   O25   0.757890  0.171780  0.510630  -0.663127
    O   O26   0.531020  0.123320  0.492420  -0.723126
    O   O27   0.680740  0.094740  0.489810  -0.494431
    O   O28   0.504940  0.220600  0.475860  -0.536864
    C   C9    0.734310  0.424860  0.510990  0.530588
    C   C10   0.547220  0.360660  0.451000  0.885859
    C   C11   0.795370  0.345210  0.464330  0.748971
    C   C12   0.529200  0.050000  0.448130  0.827139
    Zn  Zn9   0.923310  0.944080  0.689000  1.483336
    Zn  Zn10  0.034290  0.869410  0.710450  1.313446
    C   C13   0.106610  0.117900  0.651670  0.761916
    Zn  Zn11  0.074240  0.031350  0.691930  1.370832
    Zn  Zn12  0.961760  0.089360  0.662060  1.286256
    H   H5    0.032960  0.913770  0.671730  0.353993
    C   C14   0.044410  0.013580  0.737790  0.863099
    O   O29   0.863600  0.065240  0.660040  -0.766951
    O   O30   0.833740  0.976280  0.686960  -0.717006
    O   O31   0.020720  0.930300  0.685770  -1.073285
    O   O32   0.941340  0.803170  0.715070  -0.744618
    O   O33   0.898910  0.894640  0.661850  -0.777313
    O   O34   0.882140  0.888070  0.715480  -0.656681
    O   O35   0.961520  0.994580  0.641710  -0.828633
    O   O36   0.128810  0.901810  0.719470  -0.792827
    H   H6    0.965950  0.072290  0.701960  0.362846
    O   O37   0.163090  0.999740  0.695870  -0.767313
    O   O38   0.979230  0.046890  0.689640  -1.135005
    O   O39   0.052500  0.139380  0.649160  -0.662040
    O   O40   0.078220  0.058140  0.722240  -0.713850
    O   O41   0.126670  0.107150  0.671030  -0.584093
    O   O42   0.011350  0.943730  0.734130  -0.783117
    C   C15   0.819300  0.008070  0.669430  0.928292
    C   C16   0.893430  0.827270  0.723260  0.891870
    C   C17   0.919070  0.927230  0.643130  1.082392
    C   C18   0.171620  0.965730  0.713680  0.933486
    Zn  Zn13  0.318610  0.630320  0.406740  1.385124
    Zn  Zn14  0.211100  0.508780  0.438690  1.275430
    C   C19   0.131470  0.718270  0.379920  0.593382
    Zn  Zn15  0.163250  0.596550  0.404210  1.263747
    Zn  Zn16  0.276750  0.741570  0.378820  1.164904
    H   H7    0.227700  0.649620  0.436950  0.404000
    C   C20   0.182280  0.456940  0.391570  1.099184
    O   O43   0.374700  0.773610  0.374010  -0.771859
    O   O44   0.397640  0.664350  0.382900  -0.541432
    O   O45   0.230450  0.611630  0.426500  -1.146191
    O   O46   0.303570  0.507260  0.445790  -0.793485
    O   O47   0.364550  0.717620  0.423020  -0.614854
    O   O48   0.351190  0.543460  0.412490  -0.750941
    O   O49   0.292960  0.780020  0.411550  -0.651165
    O   O50   0.112780  0.456530  0.438730  -0.737382
    H   H8    0.255170  0.604290  0.372900  0.326053
    O   O51   0.082590  0.557110  0.426610  -0.583239
    O   O52   0.251780  0.633960  0.385560  -1.069752
    O   O53   0.190730  0.766310  0.381810  -0.581511
    O   O54   0.141100  0.498330  0.391200  -0.753562
    O   O55   0.110500  0.661440  0.393540  -0.493291
    O   O56   0.221830  0.459040  0.407900  -0.679304
    C   C21   0.413600  0.729700  0.372730  0.575174
    C   C22   0.353170  0.514650  0.431790  0.847350
    C   C23   0.346190  0.778440  0.422160  0.877499
    C   C24   0.066340  0.489700  0.435130  0.554412
    Zn  Zn17  0.187970  0.719630  0.966800  1.369519
    Zn  Zn18  0.301530  0.852010  0.994620  1.118715
    C   C25   0.371860  0.613850  0.945960  0.872260
    Zn  Zn19  0.342210  0.736250  0.968940  1.431194
    Zn  Zn20  0.243370  0.634040  0.933700  1.274533
    H   H9    0.264170  0.711050  0.000650  0.344351
    C   C26   0.389260  0.887480  0.953240  0.898114
    O   O57   0.145730  0.590890  0.930160  -0.757222
    O   O58   0.116830  0.691080  0.942280  -0.607328
    O   O59   0.269040  0.744420  0.987860  -1.112722
    O   O60   0.223190  0.884860  0.986940  -0.671413
    O   O61   0.152000  0.618890  0.979480  -0.718615
    O   O62   0.138080  0.787970  0.976760  -0.655905
    O   O63   0.232840  0.573430  0.964700  -0.531092
    O   O64   0.396300  0.867830  0.002050  -0.733789
    H   H10   0.270350  0.775030  0.936260  0.373189
    O   O65   0.407760  0.752620  0.995410  -0.583253
    O   O66   0.264710  0.733040  0.946650  -1.163496
    O   O67   0.334790  0.622960  0.929970  -0.777450
    O   O68   0.404100  0.824450  0.954520  -0.746676
    O   O69   0.366500  0.642440  0.964760  -0.746585
    O   O70   0.334280  0.893390  0.962410  -0.568366
    C   C27   0.099690  0.623860  0.934630  0.572420
    C   C28   0.163870  0.838690  0.990830  0.911091
    C   C29   0.184480  0.568620  0.979040  0.722191
    C   C30   0.420070  0.812200  0.007250  0.715534
    Zn  Zn21  0.995640  0.102490  0.185940  1.428609
    Zn  Zn22  0.929750  0.192360  0.221480  1.302188
    C   C31   0.764770  0.979590  0.162030  0.695511
    Zn  Zn23  0.842970  0.051780  0.198960  1.442749
    Zn  Zn24  0.908730  0.009780  0.153240  1.074905
    H   H11   0.900530  0.178520  0.182300  0.391151
    C   C32   0.899150  0.026270  0.239930  0.919032
    O   O71   0.999950  0.017950  0.142550  -0.706067
    O   O72   0.059190  0.040530  0.173520  -0.660959
    O   O73   0.913360  0.146480  0.193180  -1.154104
    O   O74   0.029160  0.230420  0.219030  -0.741272
    O   O75   0.027010  0.174030  0.161740  -0.709210
    O   O76   0.055080  0.124130  0.210960  -0.653755
    O   O77   0.928820  0.127740  0.145190  -0.620266
    O   O78   0.845300  0.173880  0.238950  -0.789288
    H   H12   0.926220  0.970130  0.191200  0.356965
    O   O79   0.778240  0.104670  0.214230  -0.661994
    O   O80   0.918070  0.014850  0.184520  -1.060268
    O   O81   0.815710  0.012540  0.149260  -0.594994
    O   O82   0.850540  0.001160  0.226420  -0.815167
    O   O83   0.763850  0.997590  0.182330  -0.597404
    O   O84   0.942820  0.092320  0.236940  -0.763413
    C   C33   0.047920  0.008840  0.154710  0.930516
    C   C34   0.066450  0.185700  0.221860  0.902983
    C   C35   0.988650  0.174960  0.145540  0.939935
    C   C36   0.788650  0.125490  0.234070  0.847634
    C   C37   0.167880  0.508160  0.995280  -0.015147
    C   C38   0.217160  0.498470  0.009040  -0.062828
    C   C39   0.198920  0.452240  0.027360  -0.220090
    C   C40   0.131330  0.415380  0.031970  0.126926
    C   C41   0.082710  0.421060  0.017400  -0.163814
    C   C42   0.100840  0.467620  0.999230  -0.125429
    C   C43   0.110770  0.376870  0.052870  0.115928
    C   C44   0.073380  0.404980  0.067630  -0.207422
    C   C45   0.050380  0.366300  0.086950  -0.154383
    C   C46   0.064700  0.299440  0.091660  0.182765
    C   C47   0.103140  0.272000  0.077130  -0.172885
    C   C48   0.126170  0.310650  0.057790  -0.189467
    C   C49   0.037780  0.257400  0.110980  0.038920
    C   C50   0.015150  0.220840  0.126930  -0.390017
    H   H13   0.269120  0.529220  0.006070  0.115373
    H   H14   0.236930  0.447430  0.038390  0.122863
    H   H15   0.030540  0.391810  0.020650  0.109434
    H   H16   0.062410  0.474830  0.988760  0.105022
    H   H17   0.061600  0.456330  0.064020  0.140832
    H   H18   0.020820  0.387900  0.098120  0.128831
    H   H19   0.114460  0.220330  0.080690  0.169439
    H   H20   0.155010  0.288560  0.046500  0.120075
    C   C51   0.456250  0.814480  0.027290  -0.073715
    C   C52   0.498950  0.882080  0.034010  -0.119131
    C   C53   0.524200  0.887580  0.054650  -0.158524
    C   C54   0.506670  0.825640  0.068820  0.142120
    C   C55   0.466130  0.757260  0.061850  -0.131088
    C   C56   0.441230  0.751610  0.041120  -0.176895
    C   C57   0.531710  0.832440  0.090830  0.104656
    C   C58   0.518900  0.885860  0.104320  -0.233255
    C   C59   0.554900  0.904650  0.123030  -0.079247
    C   C60   0.603600  0.869930  0.128400  0.116322
    C   C61   0.610730  0.810660  0.116250  -0.193860
    C   C62   0.575180  0.792210  0.097440  -0.122037
    C   C63   0.656210  0.906360  0.142380  -0.009762
    C   C64   0.703910  0.938990  0.152410  -0.209312
    H   H21   0.511460  0.930740  0.023390  0.152020
    H   H22   0.556810  0.940170  0.059720  0.115389
    H   H23   0.452910  0.708930  0.072590  0.104650
    H   H24   0.408090  0.699180  0.036140  0.139415
    H   H25   0.483900  0.915730  0.099670  0.124507
    H   H26   0.548250  0.949720  0.132530  0.152374
    H   H27   0.647550  0.782700  0.120470  0.132858
    H   H28   0.584450  0.749810  0.087370  0.128516
    C   C65   0.139760  0.826680  0.013170  -0.201986
    C   C66   0.147610  0.765440  0.025010  -0.039977
    C   C67   0.151010  0.767780  0.047360  -0.297587
    C   C68   0.144770  0.830520  0.057980  0.188969
    C   C69   0.129100  0.887620  0.046310  -0.173133
    C   C70   0.126710  0.885720  0.024000  -0.122214
    C   C71   0.156610  0.838120  0.081140  0.082149
    C   C72   0.109640  0.794040  0.095900  -0.102732
    C   C73   0.105690  0.818450  0.116760  -0.160828
    C   C74   0.147090  0.888070  0.122570  0.008616
    C   C75   0.201840  0.924370  0.109180  -0.004052
    C   C76   0.206560  0.899520  0.088420  -0.200702
    C   C77   0.119840  0.931760  0.136750  0.098024
    C   C78   0.090600  0.968160  0.146370  -0.378407
    H   H29   0.155680  0.718420  0.016820  0.100436
    H   H30   0.161010  0.722290  0.056300  0.142354
    H   H31   0.121600  0.934990  0.054480  0.141754
    H   H32   0.119350  0.932620  0.015050  0.123538
    H   H33   0.072510  0.744680  0.090720  0.129376
    H   H34   0.065100  0.787930  0.127430  0.123579
    H   H35   0.236170  0.976470  0.113890  0.122448
    H   H36   0.245180  0.931980  0.077400  0.077716
    C   C79   0.477820  0.757110  0.361040  0.131912
    C   C80   0.488630  0.723100  0.342080  -0.209165
    C   C81   0.537040  0.762280  0.326980  -0.148898
    C   C82   0.575270  0.835370  0.330910  0.110668
    C   C83   0.569640  0.865790  0.350920  -0.242732
    C   C84   0.521100  0.826820  0.365920  -0.063677
    C   C85   0.612940  0.883560  0.313190  0.079224
    C   C86   0.682030  0.916700  0.314590  -0.126922
    C   C87   0.716350  0.968400  0.298830  -0.164385
    C   C88   0.681810  0.987250  0.281590  0.244406
    C   C89   0.613050  0.953470  0.280010  -0.204458
    C   C90   0.578680  0.901890  0.295760  -0.119566
    C   C91   0.717580  0.038400  0.264970  -0.128991
    C   C92   0.748790  0.079620  0.250910  -0.177258
    H   H37   0.456240  0.668750  0.338310  0.134816
    H   H38   0.542150  0.737550  0.311760  0.111801
    H   H39   0.599860  0.921540  0.354290  0.138940
    H   H40   0.514190  0.852870  0.380730  0.160456
    H   H41   0.708930  0.903060  0.327990  0.090501
    H   H42   0.769700  0.993730  0.300020  0.153792
    H   H43   0.586170  0.967270  0.266630  0.148643
    H   H44   0.525230  0.877200  0.294640  0.113149
    C   C93   0.187530  0.412310  0.372810  -0.391893
    C   C94   0.169040  0.432550  0.352580  0.115451
    C   C95   0.172290  0.389730  0.334850  -0.291818
    C   C96   0.194070  0.326160  0.337060  0.232432
    C   C97   0.213160  0.305950  0.357180  -0.274628
    C   C98   0.210460  0.349240  0.374980  0.103533
    C   C99   0.193630  0.279250  0.318410  0.091328
    C   C100  0.235400  0.308440  0.300530  -0.217846
    C   C101  0.220290  0.276960  0.280470  -0.126866
    C   C102  0.163610  0.216040  0.278230  0.189216
    C   C103  0.127290  0.181030  0.296570  -0.244185
    C   C104  0.142180  0.212650  0.316630  -0.131586
    C   C105  0.133740  0.201840  0.257580  -0.049065
    C   C106  0.105170  0.193080  0.240830  -0.246786
    H   H45   0.152240  0.481610  0.350580  0.036413
    H   H46   0.157130  0.405490  0.319380  0.147821
    H   H47   0.229650  0.256640  0.359060  0.123045
    H   H48   0.224750  0.332840  0.390490  0.069166
    H   H49   0.276320  0.358850  0.301840  0.126931
    H   H50   0.249560  0.303480  0.266450  0.141096
    H   H51   0.084220  0.132850  0.295060  0.179496
    H   H52   0.110490  0.188710  0.330430  0.123155
    C   C107  0.909020  0.977460  0.257510  -0.125927
    C   C108  0.853960  0.926100  0.267820  -0.084276
    C   C109  0.863470  0.884300  0.285660  -0.160075
    C   C110  0.928020  0.893510  0.293220  0.146234
    C   C111  0.982960  0.943930  0.282740  -0.075188
    C   C112  0.973590  0.985550  0.264970  -0.182711
    C   C113  0.938790  0.849970  0.311900  0.099576
    C   C114  0.956400  0.885200  0.331420  -0.199324
    C   C115  0.986280  0.852390  0.347130  -0.210965
    C   C116  0.998340  0.784090  0.343430  0.312210
    C   C117  0.974930  0.745630  0.324820  -0.260546
    C   C118  0.945050  0.778430  0.309110  -0.143895
    C   C119  0.043340  0.759530  0.356860  -0.123310
    C   C120  0.082920  0.740290  0.367610  -0.141991
    H   H53   0.803840  0.919700  0.262320  0.131503
    H   H54   0.820770  0.845410  0.293700  0.095685
    H   H55   0.032990  0.950920  0.288410  0.077981
    H   H56   0.016560  0.024420  0.257040  0.176516
    H   H57   0.950970  0.940100  0.333830  0.114058
    H   H58   0.003390  0.881990  0.361620  0.176432
    H   H59   0.983220  0.692270  0.321990  0.154947
    H   H60   0.930890  0.750440  0.294180  0.130869
    C   C121  0.492160  0.975220  0.441590  -0.009465
    C   C122  0.479860  0.961650  0.419740  0.047219
    C   C123  0.428650  0.899770  0.413750  -0.144568
    H   H61   0.417890  0.891070  0.396950  0.156556
    C   C124  0.392410  0.848150  0.429240  -0.261335
    C   C125  0.406510  0.859620  0.451140  0.257192
    C   C126  0.456490  0.923230  0.457180  -0.292129
    H   H62   0.465230  0.934100  0.474030  0.161633
    C   C127  0.367220  0.807180  0.467860  -0.040616
    C   C128  0.297990  0.795830  0.470130  -0.117964
    C   C129  0.260420  0.743330  0.485140  -0.085438
    C   C130  0.291790  0.702770  0.498150  -0.197924
    C   C131  0.360880  0.715070  0.496290  -0.058862
    C   C132  0.398690  0.767520  0.481310  -0.118724
    C   C133  0.521050  0.011740  0.402990  0.091763
    C   C134  0.495150  0.061930  0.391620  -0.279386
    C   C135  0.534010  0.108640  0.375570  -0.088309
    C   C136  0.598620  0.105200  0.370770  -0.201059
    C   C137  0.624570  0.055250  0.382070  -0.014398
    C   C138  0.585920  0.008500  0.398150  -0.147035
    H   H63   0.514030  0.147400  0.366830  0.129570
    H   H64   0.628540  0.141190  0.358290  0.138203
    H   H65   0.674470  0.052430  0.378270  0.068526
    H   H66   0.606080  0.969440  0.406720  0.117997
    H   H67   0.445090  0.064710  0.395230  0.162077
    H   H68   0.273330  0.827070  0.460110  0.113111
    H   H69   0.206970  0.734000  0.486670  0.108317
    H   H70   0.452270  0.777370  0.480180  0.117782
    H   H71   0.385150  0.684020  0.506490  0.110999
    H   H72   0.262590  0.662030  0.509730  0.130457
    C   C139  0.995530  0.452160  0.441270  0.176708
    C   C140  0.967100  0.374790  0.438930  0.004759
    C   C141  0.900810  0.340740  0.445900  -0.298087
    H   H73   0.880040  0.280950  0.444920  0.143770
    C   C142  0.860920  0.383450  0.453820  -0.062265
    C   C143  0.887380  0.461960  0.453830  0.078823
    C   C144  0.954970  0.495150  0.448380  -0.363880
    H   H74   0.975710  0.554940  0.449350  0.140938
    C   C145  0.844660  0.510410  0.458600  0.298955
    C   C146  0.855060  0.553120  0.477070  -0.089931
    C   C147  0.818640  0.603730  0.480650  -0.168627
    C   C148  0.770710  0.610670  0.466080  -0.171450
    C   C149  0.760780  0.568990  0.447520  -0.028216
    C   C150  0.798730  0.520240  0.443500  -0.260543
    C   C151  0.004120  0.330090  0.427670  0.247249
    C   C152  0.033760  0.283990  0.439360  -0.107047
    C   C153  0.068570  0.241530  0.428630  -0.120210
    C   C154  0.073070  0.244130  0.406240  -0.148684
    C   C155  0.043040  0.289450  0.394530  -0.227964
    C   C156  0.008890  0.332700  0.405190  -0.147726
    H   H75   0.091940  0.206510  0.437670  0.101865
    H   H76   0.099980  0.211180  0.397960  0.119650
    H   H77   0.046670  0.291490  0.377200  0.174856
    H   H78   0.986230  0.368200  0.396040  0.095882
    H   H79   0.030240  0.281550  0.456710  0.102529
    H   H80   0.891830  0.547700  0.488500  0.082109
    H   H81   0.827320  0.637290  0.494770  0.127814
    H   H82   0.791950  0.489460  0.428820  0.118300
    H   H83   0.724130  0.574980  0.436140  0.100097
    H   H84   0.741670  0.648820  0.469090  0.100841
    C   C157  0.497050  0.400780  0.447570  -0.025546
    C   C158  0.428420  0.361470  0.446160  0.029032
    C   C159  0.382430  0.399770  0.440900  -0.212586
    H   H85   0.329770  0.369630  0.440140  0.146527
    C   C160  0.403640  0.476190  0.436280  0.028536
    C   C161  0.472240  0.515390  0.436960  -0.044552
    C   C162  0.518340  0.477670  0.443110  -0.203286
    H   H86   0.571060  0.507680  0.443620  0.139867
    C   C163  0.496780  0.594460  0.429990  0.253810
    C   C164  0.489620  0.650340  0.443600  -0.280916
    C   C165  0.514530  0.725170  0.437090  0.006120
    C   C166  0.546420  0.744400  0.417040  -0.139412
    C   C167  0.553610  0.688920  0.403440  -0.124288
    C   C168  0.528690  0.614060  0.409840  -0.173939
    C   C169  0.403690  0.280230  0.450140  0.111624
    C   C170  0.367440  0.251930  0.469140  -0.176004
    C   C171  0.336260  0.175590  0.471800  -0.142147
    C   C172  0.341430  0.127190  0.455610  -0.124189
    C   C173  0.376190  0.155240  0.436470  -0.107902
    C   C174  0.406720  0.231630  0.433610  -0.087333
    H   H87   0.308500  0.153920  0.486490  0.144757
    H   H88   0.318160  0.068010  0.457830  0.093608
    H   H89   0.379260  0.117820  0.423810  0.107677
    H   H90   0.431890  0.253170  0.418500  0.068292
    H   H91   0.362860  0.289170  0.481700  0.113048
    H   H92   0.464970  0.635840  0.459170  0.118017
    H   H93   0.509390  0.768280  0.447580  0.066083
    H   H94   0.534310  0.571350  0.399200  0.105084
    H   H95   0.578530  0.703920  0.387950  0.117927
    H   H96   0.565900  0.802330  0.412100  0.073969
    C   C175  0.696680  0.050700  0.525200  -0.051819
    C   C176  0.630520  0.008740  0.530140  -0.156958
    C   C177  0.615840  0.963350  0.548690  -0.122189
    C   C178  0.667260  0.959100  0.562310  0.173489
    C   C179  0.733920  0.996120  0.556370  -0.167934
    C   C180  0.748520  0.042030  0.537960  -0.154219
    C   C181  0.651250  0.927790  0.584290  0.043705
    C   C182  0.680220  0.873710  0.591840  -0.143140
    C   C183  0.691160  0.867670  0.613750  -0.140402
    C   C184  0.674730  0.916900  0.627940  0.101111
    C   C185  0.633470  0.959200  0.620960  -0.140137
    C   C186  0.621990  0.965040  0.599090  -0.151515
    C   C187  0.718650  0.943680  0.645280  0.018438
    C   C188  0.761620  0.971040  0.657690  -0.278810
    H   H97   0.590140  0.014340  0.520250  0.112457
    H   H98   0.564300  0.934430  0.553010  0.103240
    H   H99   0.774090  0.992710  0.566680  0.145769
    H   H100  0.799910  0.072730  0.534030  0.163984
    H   H101  0.700310  0.841960  0.580630  0.089903
    H   H102  0.720090  0.831790  0.619220  0.145251
    H   H103  0.617400  0.994670  0.632020  0.136656
    H   H104  0.596720  0.004510  0.593510  0.114807
    C   C189  0.445650  0.168050  0.508770  -0.165707
    C   C190  0.440780  0.234720  0.517400  0.048849
    C   C191  0.398590  0.233030  0.535170  -0.245487
    C   C192  0.361230  0.164690  0.544480  0.160788
    C   C193  0.364710  0.098120  0.535480  -0.185495
    C   C194  0.406800  0.099790  0.517730  -0.070694
    C   C195  0.320140  0.162670  0.564060  0.085755
    C   C196  0.264120  0.189410  0.563450  -0.170052
    C   C197  0.222980  0.183450  0.581710  -0.199036
    C   C198  0.237640  0.150820  0.600690  0.292978
    C   C199  0.294330  0.125480  0.601450  -0.182769
    C   C200  0.335520  0.131440  0.583210  -0.192856
    C   C201  0.192670  0.139950  0.619010  -0.123259
    C   C202  0.154050  0.130180  0.634100  -0.163524
    H   H105  0.470580  0.287740  0.510610  0.068225
    H   H106  0.395930  0.284720  0.541950  0.128408
    H   H107  0.335360  0.045120  0.542400  0.111793
    H   H108  0.409600  0.048030  0.511020  0.120490
    H   H109  0.251860  0.213600  0.548740  0.130885
    H   H110  0.179210  0.203180  0.581020  0.155248
    H   H111  0.306010  0.100300  0.616080  0.159534
    H   H112  0.378930  0.111100  0.583870  0.133453
    C   C203  0.754210  0.494690  0.523000  -0.008404
    C   C204  0.817460  0.517820  0.532250  -0.099212
    C   C205  0.835930  0.582840  0.543940  -0.219374
    C   C206  0.791380  0.625300  0.546700  0.169612
    C   C207  0.728720  0.603280  0.537160  -0.157107
    C   C208  0.710160  0.538310  0.525360  -0.045343
    C   C209  0.807820  0.688360  0.561320  0.066374
    C   C210  0.863190  0.750430  0.556800  -0.120882
    C   C211  0.884890  0.804770  0.572190  -0.245082
    C   C212  0.851430  0.797190  0.592150  0.199541
    C   C213  0.794650  0.736740  0.596320  -0.105382
    C   C214  0.772650  0.682830  0.580920  -0.151842
    C   C215  0.878370  0.847300  0.609070  0.007065
    C   C216  0.898690  0.885900  0.624120  -0.405075
    H   H113  0.852440  0.485580  0.530360  0.142643
    H   H114  0.884350  0.599310  0.551290  0.123227
    H   H115  0.694000  0.635810  0.539190  0.104248
    H   H116  0.661400  0.521660  0.518260  0.100966
    H   H117  0.890490  0.755430  0.541660  0.099916
    H   H118  0.928720  0.851450  0.568820  0.204876
    H   H119  0.768950  0.730060  0.611790  0.124445
    H   H120  0.729940  0.635140  0.584570  0.091195
    C   C217  0.029170  0.578460  0.936320  0.176564
    C   C218  0.976890  0.607690  0.930270  -0.146465
    C   C219  0.910310  0.565240  0.933920  -0.211668
    H   H121  0.870290  0.587010  0.928680  0.192769
    C   C220  0.895100  0.493440  0.943260  0.212302
    C   C221  0.947430  0.464880  0.949640  -0.187751
    C   C222  0.013880  0.506640  0.945560  -0.185899
    H   H122  0.053920  0.483940  0.950170  0.189225
    C   C223  0.933410  0.393240  0.961660  0.197208
    C   C224  0.947680  0.332240  0.952230  -0.110272
    C   C225  0.938090  0.265820  0.964050  -0.111004
    C   C226  0.914420  0.260090  0.985300  -0.129570
    C   C227  0.899980  0.320660  0.994730  -0.021196
    C   C228  0.909570  0.387230  0.982980  -0.152351
    C   C229  0.991080  0.680290  0.918840  0.154038
    C   C230  0.001780  0.685150  0.896530  -0.071807
    C   C231  0.012620  0.753470  0.885600  -0.189237
    C   C232  0.012930  0.817060  0.896880  -0.058462
    C   C233  0.002340  0.812430  0.919110  -0.186132
    C   C234  0.990970  0.744110  0.930090  -0.076535
    H   H123  0.020610  0.757100  0.868390  0.143122
    H   H124  0.021570  0.869950  0.888400  0.064635
    H   H125  0.002790  0.861740  0.927830  0.142234
    H   H126  0.982360  0.740760  0.947300  0.124609
    H   H127  0.001130  0.635970  0.887690  0.083907
    H   H128  0.966440  0.336470  0.935810  0.118090
    H   H129  0.949050  0.218790  0.956750  0.129542
    H   H130  0.899250  0.434320  0.990490  0.082672
    H   H131  0.881830  0.316190  0.011200  0.092644
    H   H132  0.907060  0.208630  0.994430  0.049947
    C   C235  0.517000  0.092670  0.927560  -0.235572
    C   C236  0.542690  0.047920  0.941450  0.158459
    C   C237  0.501660  0.978070  0.948560  -0.162872
    H   H133  0.520650  0.944870  0.959830  0.157458
    C   C238  0.435190  0.952670  0.942120  -0.200404
    C   C239  0.410680  0.995790  0.927380  0.087696
    C   C240  0.451390  0.065890  0.920440  -0.148213
    H   H134  0.432360  0.099100  0.909190  0.168610
    C   C241  0.342850  0.967160  0.918850  0.035386
    C   C242  0.328790  0.908600  0.904450  -0.088864
    C   C243  0.263580  0.878210  0.897510  0.017891
    C   C244  0.212320  0.906210  0.904850  -0.240727
    C   C245  0.226250  0.965080  0.919010  -0.046516
    C   C246  0.291420  0.995800  0.925950  -0.171069
    C   C247  0.612030  0.074340  0.948880  0.010743
    C   C248  0.661720  0.046900  0.939770  -0.217938
    C   C249  0.728290  0.076110  0.945570  0.034209
    C   C250  0.745400  0.132380  0.960530  -0.285026
    C   C251  0.695940  0.159300  0.969820  0.039588
    C   C252  0.629280  0.130200  0.964100  -0.134768
    H   H135  0.766660  0.055430  0.938370  0.106024
    H   H136  0.796940  0.155080  0.964930  0.162148
    H   H137  0.709330  0.203030  0.981350  0.055329
    H   H138  0.591310  0.151950  0.971150  0.078627
    H   H139  0.648940  0.004060  0.927940  0.116136
    H   H140  0.368110  0.886000  0.898920  0.067885
    H   H141  0.252680  0.832570  0.886570  0.053518
    H   H142  0.301730  0.040770  0.937140  0.107919
    H   H143  0.186490  0.986620  0.924700  0.113424
    H   H144  0.161830  0.882310  0.899570  0.150013
    C   C253  0.416790  0.567210  0.943120  -0.042855
    C   C254  0.390820  0.489710  0.940670  0.065094
    C   C255  0.434280  0.447240  0.935980  -0.241674
    H   H145  0.414410  0.387620  0.934290  0.139466
    C   C256  0.503390  0.481040  0.934080  -0.013808
    C   C257  0.529350  0.558540  0.936710  0.036357
    C   C258  0.485830  0.600960  0.941290  -0.225745
    H   H146  0.505670  0.660560  0.943040  0.135449
    C   C259  0.601700  0.596220  0.933910  0.191584
    C   C260  0.626810  0.635410  0.914720  -0.229228
    C   C261  0.695030  0.672460  0.912260  -0.105531
    C   C262  0.738570  0.669190  0.928730  -0.132754
    C   C263  0.713680  0.630730  0.947940  -0.057492
    C   C264  0.645240  0.595250  0.950690  -0.176137
    C   C265  0.318640  0.452180  0.944010  0.179120
    C   C266  0.274060  0.451530  0.927440  -0.180833
    C   C267  0.205400  0.419440  0.931030  -0.078118
    C   C268  0.181220  0.386140  0.950950  -0.113590
    C   C269  0.225670  0.384620  0.967290  -0.110024
    C   C270  0.294210  0.418250  0.963940  -0.220066
    H   H147  0.170950  0.420530  0.918390  0.110452
    H   H148  0.128050  0.361700  0.953750  0.048429
    H   H149  0.206900  0.358430  0.982660  0.139145
    H   H150  0.328200  0.418460  0.976840  0.116586
    H   H151  0.292500  0.476970  0.911940  0.110690
    H   H152  0.593560  0.636990  0.901740  0.125124
    H   H153  0.714330  0.702590  0.897440  0.132214
    H   H154  0.626140  0.566530  0.965740  0.101446
    H   H155  0.747400  0.628480  0.960710  0.102336
    H   H156  0.791580  0.696340  0.926590  0.052062
    C   C271  0.037630  0.044140  0.759010  -0.165865
    C   C272  0.983530  0.008480  0.772830  -0.144733
    C   C273  0.974540  0.039970  0.792280  -0.057255
    C   C274  0.019630  0.107280  0.798220  0.128739
    C   C275  0.075490  0.141110  0.784930  -0.154392
    C   C276  0.084300  0.109920  0.765360  -0.059800
    C   C277  0.003790  0.146350  0.816930  0.076498
    C   C278  0.991300  0.215320  0.813960  -0.108427
    C   C279  0.959200  0.243250  0.830170  -0.240985
    C   C280  0.939200  0.202340  0.849400  0.223802
    C   C281  0.957760  0.137370  0.853210  -0.159961
    C   C282  0.990300  0.109590  0.837050  -0.223244
    C   C283  0.889080  0.218430  0.862950  -0.061605
    C   C284  0.844310  0.230060  0.873380  -0.188393
    H   H157  0.947320  0.957500  0.768240  0.140881
    H   H158  0.931160  0.013450  0.802400  0.094668
    H   H159  0.111160  0.192470  0.789530  0.095093
    H   H160  0.127270  0.136970  0.755140  0.118439
    H   H161  0.002400  0.244790  0.798610  0.136471
    H   H162  0.945910  0.294150  0.827230  0.142523
    H   H163  0.943410  0.106010  0.868170  0.153980
    H   H164  0.001270  0.057220  0.839710  0.127098
    C   C285  0.459010  0.221680  0.853540  -0.007514
    C   C286  0.416910  0.148580  0.852840  -0.091159
    C   C287  0.375630  0.126270  0.835430  -0.203104
    C   C288  0.375820  0.176970  0.818590  0.145027
    C   C289  0.414190  0.251480  0.820050  -0.115104
    C   C290  0.455520  0.273810  0.837520  -0.224753
    C   C291  0.340370  0.150500  0.798760  0.045002
    C   C292  0.376520  0.154380  0.779350  -0.113544
    C   C293  0.344450  0.120130  0.761200  -0.252678
    C   C294  0.276230  0.081630  0.762380  0.311348
    C   C295  0.239730  0.079420  0.781570  -0.211146
    C   C296  0.271510  0.114290  0.799630  -0.122587
    C   C297  0.243780  0.042140  0.744220  -0.149590
    C   C298  0.213240  0.007740  0.729730  -0.172401
    H   H165  0.418350  0.108210  0.865340  0.139559
    H   H166  0.345600  0.068840  0.834580  0.114901
    H   H167  0.413740  0.291370  0.807310  0.113328
    H   H168  0.487420  0.330560  0.838000  0.156189
    H   H169  0.429760  0.181950  0.778510  0.106217
    H   H170  0.372910  0.122290  0.746400  0.167809
    H   H171  0.187080  0.049180  0.782640  0.156478
    H   H172  0.243070  0.111310  0.814480  0.104684
    C   C299  0.746570  0.553660  0.881910  -0.129602
    C   C300  0.691570  0.558340  0.870030  0.024006
    C   C301  0.701370  0.603090  0.851390  -0.215206
    C   C302  0.766290  0.643030  0.844410  0.154818
    C   C303  0.820820  0.642160  0.857090  -0.201380
    C   C304  0.810970  0.597650  0.875760  -0.076841
    C   C305  0.777880  0.678410  0.822790  0.052649
    C   C306  0.812470  0.754250  0.820150  -0.095460
    C   C307  0.830350  0.785550  0.799580  -0.297247
    C   C308  0.813550  0.741330  0.781560  0.301926
    C   C309  0.776830  0.666350  0.784130  -0.205538
    C   C310  0.759070  0.634940  0.804660  -0.149185
    C   C311  0.839270  0.771050  0.760670  -0.114623
    C   C312  0.862720  0.796140  0.743390  -0.207597
    H   H173  0.641550  0.525210  0.874780  0.079049
    H   H174  0.658830  0.604490  0.841930  0.118604
    H   H175  0.871080  0.673450  0.851990  0.126854
    H   H176  0.853610  0.595450  0.885070  0.101444
    H   H177  0.826840  0.788410  0.834010  0.102701
    H   H178  0.858700  0.843640  0.797710  0.198092
    H   H179  0.763660  0.631870  0.770270  0.157301
    H   H180  0.732530  0.576320  0.806510  0.113025
